
*** ChampSim Multicore Out-of-Order Simulator ***

Warmup Instructions: 1000000
Simulation Instructions: 1000000
Number of CPUs: 1
Off-chip DRAM Size: 4 GiB Channels: 1 Width: 64-bit Data Rate: 3200 MT/s

VirtualMemory physical capacity: 8588881920 num_ppages: 2096895
VirtualMemory page size: 4096 log2_page_size: 12

CPU 0 runs gap_traces/cc-6.trace.gz
CPU 0 Bimodal branch predictor
Basic BTB sets: 1024 ways: 8 indirect buffer size: 4096 RAS size: 64

Warmup complete CPU 0 instructions: 1000001 cycles: 250190 (Simulation time: 0 hr 0 min 2 sec) 

Finished CPU 0 instructions: 1000000 cycles: 5341752 cumulative IPC: 0.187204 (Simulation time: 0 hr 0 min 21 sec) 

ChampSim completed all CPUs

Region of Interest Statistics

CPU 0 cumulative IPC: 0.187204 instructions: 1000000 cycles: 5341752
cpu0_DTLB TOTAL     ACCESS:     169098  HIT:     156370  MISS:      12728
cpu0_DTLB LOAD      ACCESS:      86251  HIT:      73897  MISS:      12354
cpu0_DTLB RFO       ACCESS:      82847  HIT:      82473  MISS:        374
cpu0_DTLB PREFETCH  ACCESS:          0  HIT:          0  MISS:          0
cpu0_DTLB WRITEBACK ACCESS:          0  HIT:          0  MISS:          0
cpu0_DTLB TRANSLATION ACCESS:          0  HIT:          0  MISS:          0
cpu0_DTLB PREFETCH  REQUESTED:          0  ISSUED:          0  USEFUL:          0  USELESS:          0
cpu0_DTLB AVERAGE MISS LATENCY: 16.029 cycles
cpu0_ITLB TOTAL     ACCESS:      43511  HIT:      43511  MISS:          0
cpu0_ITLB LOAD      ACCESS:      43511  HIT:      43511  MISS:          0
cpu0_ITLB RFO       ACCESS:          0  HIT:          0  MISS:          0
cpu0_ITLB PREFETCH  ACCESS:          0  HIT:          0  MISS:          0
cpu0_ITLB WRITEBACK ACCESS:          0  HIT:          0  MISS:          0
cpu0_ITLB TRANSLATION ACCESS:          0  HIT:          0  MISS:          0
cpu0_ITLB PREFETCH  REQUESTED:          0  ISSUED:          0  USEFUL:          0  USELESS:          0
cpu0_ITLB AVERAGE MISS LATENCY: -nan cycles
cpu0_L1I TOTAL     ACCESS:          7  HIT:          3  MISS:          4
cpu0_L1I LOAD      ACCESS:          7  HIT:          3  MISS:          4
cpu0_L1I RFO       ACCESS:          0  HIT:          0  MISS:          0
cpu0_L1I PREFETCH  ACCESS:          0  HIT:          0  MISS:          0
cpu0_L1I WRITEBACK ACCESS:          0  HIT:          0  MISS:          0
cpu0_L1I TRANSLATION ACCESS:          0  HIT:          0  MISS:          0
cpu0_L1I PREFETCH  REQUESTED:          0  ISSUED:          0  USEFUL:          0  USELESS:          0
cpu0_L1I AVERAGE MISS LATENCY: 2027.25 cycles
cpu0_STLB TOTAL     ACCESS:      12728  HIT:      12330  MISS:        398
cpu0_STLB LOAD      ACCESS:      12354  HIT:      12329  MISS:         25
cpu0_STLB RFO       ACCESS:        374  HIT:          1  MISS:        373
cpu0_STLB PREFETCH  ACCESS:          0  HIT:          0  MISS:          0
cpu0_STLB WRITEBACK ACCESS:          0  HIT:          0  MISS:          0
cpu0_STLB TRANSLATION ACCESS:          0  HIT:          0  MISS:          0
cpu0_STLB PREFETCH  REQUESTED:          0  ISSUED:          0  USEFUL:          0  USELESS:          0
cpu0_STLB AVERAGE MISS LATENCY: 212.307 cycles
cpu0_L1D TOTAL     ACCESS:     117295  HIT:      68703  MISS:      48592
cpu0_L1D LOAD      ACCESS:      74030  HIT:      49431  MISS:      24599
cpu0_L1D RFO       ACCESS:      42866  HIT:      18896  MISS:      23970
cpu0_L1D PREFETCH  ACCESS:          0  HIT:          0  MISS:          0
cpu0_L1D WRITEBACK ACCESS:          0  HIT:          0  MISS:          0
cpu0_L1D TRANSLATION ACCESS:        399  HIT:        376  MISS:         23
cpu0_L1D PREFETCH  REQUESTED:          0  ISSUED:          0  USEFUL:          0  USELESS:          0
cpu0_L1D AVERAGE MISS LATENCY: 1125.22 cycles
cpu0_L2C TOTAL     ACCESS:      91063  HIT:      23987  MISS:      67076
cpu0_L2C LOAD      ACCESS:      24603  HIT:       4684  MISS:      19919
cpu0_L2C RFO       ACCESS:      23970  HIT:          0  MISS:      23970
cpu0_L2C PREFETCH  ACCESS:          0  HIT:          0  MISS:          0
cpu0_L2C WRITEBACK ACCESS:      42467  HIT:      19283  MISS:      23184
cpu0_L2C TRANSLATION ACCESS:         23  HIT:         20  MISS:          3
cpu0_L2C PREFETCH  REQUESTED:          0  ISSUED:          0  USEFUL:          0  USELESS:          0
cpu0_L2C AVERAGE MISS LATENCY: 807.178 cycles
LLC TOTAL     ACCESS:      86426  HIT:      17508  MISS:      68918
LLC LOAD      ACCESS:      19919  HIT:       9185  MISS:      10734
LLC RFO       ACCESS:      23970  HIT:          0  MISS:      23970
LLC PREFETCH  ACCESS:          0  HIT:          0  MISS:          0
LLC WRITEBACK ACCESS:      42534  HIT:       8323  MISS:      34211
LLC TRANSLATION ACCESS:          3  HIT:          0  MISS:          3
LLC PREFETCH  REQUESTED:          0  ISSUED:          0  USEFUL:          0  USELESS:          0
LLC AVERAGE MISS LATENCY: 772.23 cycles

DRAM Statistics
 CHANNEL 0
 RQ ROW_BUFFER_HIT:       8350  ROW_BUFFER_MISS:      26316
 DBUS AVG_CONGESTED_CYCLE:     3.9886
 WQ ROW_BUFFER_HIT:       3769  ROW_BUFFER_MISS:      58957  FULL:       8293


CPU 0 Branch Prediction Accuracy: 95.8769% MPKI: 6.86799 Average ROB Occupancy at Mispredict: 41.1491
Branch type MPKI
BRANCH_DIRECT_JUMP: 0
BRANCH_INDIRECT: 0
BRANCH_CONDITIONAL: 6.868
BRANCH_DIRECT_CALL: 0
BRANCH_INDIRECT_CALL: 0
BRANCH_RETURN: 0

