
*** ChampSim Multicore Out-of-Order Simulator ***

Warmup Instructions: 30000000
Simulation Instructions: 30000000
Number of CPUs: 1
Off-chip DRAM Size: 4 GiB Channels: 1 Width: 64-bit Data Rate: 3200 MT/s

VirtualMemory physical capacity: 8588881920 num_ppages: 2096895
VirtualMemory page size: 4096 log2_page_size: 12

CPU 0 runs gap_traces/bfs-3.trace.gz
CPU 0 Bimodal branch predictor
Basic BTB sets: 1024 ways: 8 indirect buffer size: 4096 RAS size: 64
Heartbeat CPU 0 instructions: 10000003 cycles: 2500200 heartbeat IPC: 3.99968 cumulative IPC: 3.99968 (Simulation time: 0 hr 0 min 32 sec) 
Heartbeat CPU 0 instructions: 20000003 cycles: 5135372 heartbeat IPC: 3.79482 cumulative IPC: 3.89456 (Simulation time: 0 hr 1 min 14 sec) 
Heartbeat CPU 0 instructions: 30000002 cycles: 7762210 heartbeat IPC: 3.80686 cumulative IPC: 3.86488 (Simulation time: 0 hr 1 min 52 sec) 

Warmup complete CPU 0 instructions: 30000002 cycles: 7762210 (Simulation time: 0 hr 1 min 52 sec) 

Heartbeat CPU 0 instructions: 40000002 cycles: 48107828 heartbeat IPC: 0.247858 cumulative IPC: 0.247858 (Simulation time: 0 hr 2 min 55 sec) 
Heartbeat CPU 0 instructions: 50000000 cycles: 96746118 heartbeat IPC: 0.205599 cumulative IPC: 0.22476 (Simulation time: 0 hr 5 min 0 sec) 
Heartbeat CPU 0 instructions: 60000000 cycles: 152203662 heartbeat IPC: 0.180318 cumulative IPC: 0.207697 (Simulation time: 0 hr 7 min 16 sec) 
Finished CPU 0 instructions: 30000002 cycles: 144441453 cumulative IPC: 0.207697 (Simulation time: 0 hr 7 min 16 sec) 

ChampSim completed all CPUs

Region of Interest Statistics

CPU 0 cumulative IPC: 0.207697 instructions: 30000002 cycles: 144441453
cpu0_DTLB TOTAL     ACCESS:    6724307  HIT:    6682186  MISS:      42121
cpu0_DTLB LOAD      ACCESS:    5966440  HIT:    5924452  MISS:      41988
cpu0_DTLB RFO       ACCESS:     757867  HIT:     757734  MISS:        133
cpu0_DTLB PREFETCH  ACCESS:          0  HIT:          0  MISS:          0
cpu0_DTLB WRITEBACK ACCESS:          0  HIT:          0  MISS:          0
cpu0_DTLB TRANSLATION ACCESS:          0  HIT:          0  MISS:          0
cpu0_DTLB PREFETCH  REQUESTED:          0  ISSUED:          0  USEFUL:          0  USELESS:          0
cpu0_DTLB AVERAGE MISS LATENCY: 65.3992 cycles
cpu0_ITLB TOTAL     ACCESS:    3444641  HIT:    3444641  MISS:          0
cpu0_ITLB LOAD      ACCESS:    3444641  HIT:    3444641  MISS:          0
cpu0_ITLB RFO       ACCESS:          0  HIT:          0  MISS:          0
cpu0_ITLB PREFETCH  ACCESS:          0  HIT:          0  MISS:          0
cpu0_ITLB WRITEBACK ACCESS:          0  HIT:          0  MISS:          0
cpu0_ITLB TRANSLATION ACCESS:          0  HIT:          0  MISS:          0
cpu0_ITLB PREFETCH  REQUESTED:          0  ISSUED:          0  USEFUL:          0  USELESS:          0
cpu0_ITLB AVERAGE MISS LATENCY: -nan cycles
cpu0_L1I TOTAL     ACCESS:         91  HIT:         90  MISS:          1
cpu0_L1I LOAD      ACCESS:         91  HIT:         90  MISS:          1
cpu0_L1I RFO       ACCESS:          0  HIT:          0  MISS:          0
cpu0_L1I PREFETCH  ACCESS:          0  HIT:          0  MISS:          0
cpu0_L1I WRITEBACK ACCESS:          0  HIT:          0  MISS:          0
cpu0_L1I TRANSLATION ACCESS:          0  HIT:          0  MISS:          0
cpu0_L1I PREFETCH  REQUESTED:          0  ISSUED:          0  USEFUL:          0  USELESS:          0
cpu0_L1I AVERAGE MISS LATENCY: 194 cycles
cpu0_STLB TOTAL     ACCESS:      42121  HIT:       3900  MISS:      38221
cpu0_STLB LOAD      ACCESS:      41988  HIT:       3814  MISS:      38174
cpu0_STLB RFO       ACCESS:        133  HIT:         86  MISS:         47
cpu0_STLB PREFETCH  ACCESS:          0  HIT:          0  MISS:          0
cpu0_STLB WRITEBACK ACCESS:          0  HIT:          0  MISS:          0
cpu0_STLB TRANSLATION ACCESS:          0  HIT:          0  MISS:          0
cpu0_STLB PREFETCH  REQUESTED:          0  ISSUED:          0  USEFUL:          0  USELESS:          0
cpu0_STLB AVERAGE MISS LATENCY: 62.1539 cycles
cpu0_L1D TOTAL     ACCESS:    6670929  HIT:    5883130  MISS:     787799
cpu0_L1D LOAD      ACCESS:    5827737  HIT:    5041895  MISS:     785842
cpu0_L1D RFO       ACCESS:     804974  HIT:     803049  MISS:       1925
cpu0_L1D PREFETCH  ACCESS:          0  HIT:          0  MISS:          0
cpu0_L1D WRITEBACK ACCESS:          0  HIT:          0  MISS:          0
cpu0_L1D TRANSLATION ACCESS:      38218  HIT:      38186  MISS:         32
cpu0_L1D PREFETCH  REQUESTED:          0  ISSUED:          0  USEFUL:          0  USELESS:          0
cpu0_L1D AVERAGE MISS LATENCY: 144.598 cycles
cpu0_L2C TOTAL     ACCESS:     887367  HIT:     230089  MISS:     657278
cpu0_L2C LOAD      ACCESS:     785843  HIT:     130086  MISS:     655757
cpu0_L2C RFO       ACCESS:       1925  HIT:       1242  MISS:        683
cpu0_L2C PREFETCH  ACCESS:          0  HIT:          0  MISS:          0
cpu0_L2C WRITEBACK ACCESS:      99567  HIT:      98761  MISS:        806
cpu0_L2C TRANSLATION ACCESS:         32  HIT:          0  MISS:         32
cpu0_L2C PREFETCH  REQUESTED:          0  ISSUED:          0  USEFUL:          0  USELESS:          0
cpu0_L2C AVERAGE MISS LATENCY: 160.113 cycles
LLC TOTAL     ACCESS:     756632  HIT:     154637  MISS:     601995
LLC LOAD      ACCESS:     655757  HIT:      54565  MISS:     601192
LLC RFO       ACCESS:        683  HIT:        609  MISS:         74
LLC PREFETCH  ACCESS:          0  HIT:          0  MISS:          0
LLC WRITEBACK ACCESS:     100160  HIT:      99457  MISS:        703
LLC TRANSLATION ACCESS:         32  HIT:          6  MISS:         26
LLC PREFETCH  REQUESTED:          0  ISSUED:          0  USEFUL:          0  USELESS:          0
LLC AVERAGE MISS LATENCY: 151.916 cycles

DRAM Statistics
 CHANNEL 0
 RQ ROW_BUFFER_HIT:      75098  ROW_BUFFER_MISS:     526194
 DBUS AVG_CONGESTED_CYCLE:     3.3814
 WQ ROW_BUFFER_HIT:      63625  ROW_BUFFER_MISS:      35802  FULL:          0


CPU 0 Branch Prediction Accuracy: 76.962% MPKI: 46.9029 Average ROB Occupancy at Mispredict: 7.5914
Branch type MPKI
BRANCH_DIRECT_JUMP: 3.33333e-05
BRANCH_INDIRECT: 0
BRANCH_CONDITIONAL: 46.9028
BRANCH_DIRECT_CALL: 3.33333e-05
BRANCH_INDIRECT_CALL: 0
BRANCH_RETURN: 3.33333e-05

