
*** ChampSim Multicore Out-of-Order Simulator ***

Warmup Instructions: 30000000
Simulation Instructions: 30000000
Number of CPUs: 1
Off-chip DRAM Size: 4 GiB Channels: 1 Width: 64-bit Data Rate: 3200 MT/s

VirtualMemory physical capacity: 8588881920 num_ppages: 2096895
VirtualMemory page size: 4096 log2_page_size: 12

CPU 0 runs gap_traces/cc-6.trace.gz
CPU 0 Bimodal branch predictor
Basic BTB sets: 1024 ways: 8 indirect buffer size: 4096 RAS size: 64
Heartbeat CPU 0 instructions: 10000004 cycles: 2549823 heartbeat IPC: 3.92184 cumulative IPC: 3.92184 (Simulation time: 0 hr 1 min 1 sec) 
Heartbeat CPU 0 instructions: 20000002 cycles: 5242337 heartbeat IPC: 3.714 cumulative IPC: 3.81509 (Simulation time: 0 hr 2 min 7 sec) 
Heartbeat CPU 0 instructions: 30000004 cycles: 8005862 heartbeat IPC: 3.61857 cumulative IPC: 3.74725 (Simulation time: 0 hr 3 min 8 sec) 

Warmup complete CPU 0 instructions: 30000004 cycles: 8005862 (Simulation time: 0 hr 3 min 8 sec) 

Heartbeat CPU 0 instructions: 40000000 cycles: 57885673 heartbeat IPC: 0.200482 cumulative IPC: 0.200482 (Simulation time: 0 hr 5 min 30 sec) 
Heartbeat CPU 0 instructions: 50000000 cycles: 107414905 heartbeat IPC: 0.201901 cumulative IPC: 0.201189 (Simulation time: 0 hr 7 min 6 sec) 
Heartbeat CPU 0 instructions: 60000003 cycles: 155806000 heartbeat IPC: 0.20665 cumulative IPC: 0.202977 (Simulation time: 0 hr 8 min 30 sec) 
Finished CPU 0 instructions: 30000004 cycles: 147800139 cumulative IPC: 0.202977 (Simulation time: 0 hr 8 min 30 sec) 

ChampSim completed all CPUs

Region of Interest Statistics

CPU 0 cumulative IPC: 0.202977 instructions: 30000004 cycles: 147800139
cpu0_DTLB TOTAL     ACCESS:    7972961  HIT:    6395239  MISS:    1577722
cpu0_DTLB LOAD      ACCESS:    7866395  HIT:    6288673  MISS:    1577722
cpu0_DTLB RFO       ACCESS:     106566  HIT:     106566  MISS:          0
cpu0_DTLB PREFETCH  ACCESS:          0  HIT:          0  MISS:          0
cpu0_DTLB WRITEBACK ACCESS:          0  HIT:          0  MISS:          0
cpu0_DTLB TRANSLATION ACCESS:          0  HIT:          0  MISS:          0
cpu0_DTLB PREFETCH  REQUESTED:          0  ISSUED:          0  USEFUL:          0  USELESS:          0
cpu0_DTLB AVERAGE MISS LATENCY: 9.73006 cycles
cpu0_ITLB TOTAL     ACCESS:    3222023  HIT:    3222023  MISS:          0
cpu0_ITLB LOAD      ACCESS:    3222023  HIT:    3222023  MISS:          0
cpu0_ITLB RFO       ACCESS:          0  HIT:          0  MISS:          0
cpu0_ITLB PREFETCH  ACCESS:          0  HIT:          0  MISS:          0
cpu0_ITLB WRITEBACK ACCESS:          0  HIT:          0  MISS:          0
cpu0_ITLB TRANSLATION ACCESS:          0  HIT:          0  MISS:          0
cpu0_ITLB PREFETCH  REQUESTED:          0  ISSUED:          0  USEFUL:          0  USELESS:          0
cpu0_ITLB AVERAGE MISS LATENCY: -nan cycles
cpu0_STLB TOTAL     ACCESS:    1577722  HIT:    1575384  MISS:       2338
cpu0_STLB LOAD      ACCESS:    1577722  HIT:    1575384  MISS:       2338
cpu0_STLB RFO       ACCESS:          0  HIT:          0  MISS:          0
cpu0_STLB PREFETCH  ACCESS:          0  HIT:          0  MISS:          0
cpu0_STLB WRITEBACK ACCESS:          0  HIT:          0  MISS:          0
cpu0_STLB TRANSLATION ACCESS:          0  HIT:          0  MISS:          0
cpu0_STLB PREFETCH  REQUESTED:          0  ISSUED:          0  USEFUL:          0  USELESS:          0
cpu0_STLB AVERAGE MISS LATENCY: 209.616 cycles
cpu0_L1D TOTAL     ACCESS:    6556014  HIT:    4764952  MISS:    1791062
cpu0_L1D LOAD      ACCESS:    6446744  HIT:    4655827  MISS:    1790917
cpu0_L1D RFO       ACCESS:     106932  HIT:     106932  MISS:          0
cpu0_L1D PREFETCH  ACCESS:          0  HIT:          0  MISS:          0
cpu0_L1D WRITEBACK ACCESS:          0  HIT:          0  MISS:          0
cpu0_L1D TRANSLATION ACCESS:       2338  HIT:       2193  MISS:        145
cpu0_L1D PREFETCH  REQUESTED:          0  ISSUED:          0  USEFUL:          0  USELESS:          0
cpu0_L1D AVERAGE MISS LATENCY: 105.238 cycles
cpu0_L2C TOTAL     ACCESS:    1878814  HIT:     219775  MISS:    1659039
cpu0_L2C LOAD      ACCESS:    1790917  HIT:     146857  MISS:    1644060
cpu0_L2C RFO       ACCESS:          0  HIT:          0  MISS:          0
cpu0_L2C PREFETCH  ACCESS:          0  HIT:          0  MISS:          0
cpu0_L2C WRITEBACK ACCESS:      87752  HIT:      72877  MISS:      14875
cpu0_L2C TRANSLATION ACCESS:        145  HIT:         41  MISS:        104
cpu0_L2C PREFETCH  REQUESTED:          0  ISSUED:          0  USEFUL:          0  USELESS:          0
cpu0_L2C AVERAGE MISS LATENCY: 101.572 cycles
LLC TOTAL     ACCESS:    1731805  HIT:    1000206  MISS:     731599
LLC LOAD      ACCESS:    1644060  HIT:     912680  MISS:     731380
LLC RFO       ACCESS:          0  HIT:          0  MISS:          0
LLC PREFETCH  ACCESS:          0  HIT:          0  MISS:          0
LLC WRITEBACK ACCESS:      87641  HIT:      87422  MISS:        219
LLC TRANSLATION ACCESS:        104  HIT:        104  MISS:          0
LLC PREFETCH  REQUESTED:          0  ISSUED:          0  USEFUL:          0  USELESS:          0
LLC AVERAGE MISS LATENCY: 183.14 cycles

DRAM Statistics
 CHANNEL 0
 RQ ROW_BUFFER_HIT:      15928  ROW_BUFFER_MISS:     715413
 DBUS AVG_CONGESTED_CYCLE:    3.74549
 WQ ROW_BUFFER_HIT:      45716  ROW_BUFFER_MISS:      38919  FULL:          0


CPU 0 Branch Prediction Accuracy: 84.6764% MPKI: 31.4387 Average ROB Occupancy at Mispredict: 14.6141
Branch type MPKI
BRANCH_DIRECT_JUMP: 0
BRANCH_INDIRECT: 0
BRANCH_CONDITIONAL: 31.4387
BRANCH_DIRECT_CALL: 0
BRANCH_INDIRECT_CALL: 0
BRANCH_RETURN: 0

