
*** ChampSim Multicore Out-of-Order Simulator ***

Warmup Instructions: 30000000
Simulation Instructions: 30000000
Number of CPUs: 1
Off-chip DRAM Size: 4 GiB Channels: 1 Width: 64-bit Data Rate: 3200 MT/s

VirtualMemory physical capacity: 8588881920 num_ppages: 2096895
VirtualMemory page size: 4096 log2_page_size: 12

CPU 0 runs gap_traces/cc-6.trace.gz
CPU 0 Bimodal branch predictor
Basic BTB sets: 1024 ways: 8 indirect buffer size: 4096 RAS size: 64
Heartbeat CPU 0 instructions: 10000004 cycles: 2549816 heartbeat IPC: 3.92185 cumulative IPC: 3.92185 (Simulation time: 0 hr 0 min 12 sec) 
Heartbeat CPU 0 instructions: 20000001 cycles: 5242330 heartbeat IPC: 3.714 cumulative IPC: 3.8151 (Simulation time: 0 hr 0 min 27 sec) 
Heartbeat CPU 0 instructions: 30000004 cycles: 8005851 heartbeat IPC: 3.61857 cumulative IPC: 3.74726 (Simulation time: 0 hr 0 min 41 sec) 

Warmup complete CPU 0 instructions: 30000004 cycles: 8005851 (Simulation time: 0 hr 0 min 41 sec) 

Heartbeat CPU 0 instructions: 40000000 cycles: 58524415 heartbeat IPC: 0.197947 cumulative IPC: 0.197947 (Simulation time: 0 hr 1 min 16 sec) 
Heartbeat CPU 0 instructions: 50000000 cycles: 108703880 heartbeat IPC: 0.199285 cumulative IPC: 0.198614 (Simulation time: 0 hr 1 min 52 sec) 
Heartbeat CPU 0 instructions: 60000003 cycles: 157670561 heartbeat IPC: 0.204221 cumulative IPC: 0.200448 (Simulation time: 0 hr 2 min 28 sec) 
Finished CPU 0 instructions: 30000004 cycles: 149664711 cumulative IPC: 0.200448 (Simulation time: 0 hr 2 min 28 sec) 

ChampSim completed all CPUs

Region of Interest Statistics

CPU 0 cumulative IPC: 0.200448 instructions: 30000004 cycles: 149664711
cpu0_DTLB TOTAL     ACCESS:    7976784  HIT:    6399028  MISS:    1577756
cpu0_DTLB LOAD      ACCESS:    7870208  HIT:    6292452  MISS:    1577756
cpu0_DTLB RFO       ACCESS:     106576  HIT:     106576  MISS:          0
cpu0_DTLB PREFETCH  ACCESS:          0  HIT:          0  MISS:          0
cpu0_DTLB WRITEBACK ACCESS:          0  HIT:          0  MISS:          0
cpu0_DTLB TRANSLATION ACCESS:          0  HIT:          0  MISS:          0
cpu0_DTLB PREFETCH  REQUESTED:          0  ISSUED:          0  USEFUL:          0  USELESS:          0
cpu0_DTLB AVERAGE MISS LATENCY: 9.74489 cycles
cpu0_ITLB TOTAL     ACCESS:    3221324  HIT:    3221324  MISS:          0
cpu0_ITLB LOAD      ACCESS:    3221324  HIT:    3221324  MISS:          0
cpu0_ITLB RFO       ACCESS:          0  HIT:          0  MISS:          0
cpu0_ITLB PREFETCH  ACCESS:          0  HIT:          0  MISS:          0
cpu0_ITLB WRITEBACK ACCESS:          0  HIT:          0  MISS:          0
cpu0_ITLB TRANSLATION ACCESS:          0  HIT:          0  MISS:          0
cpu0_ITLB PREFETCH  REQUESTED:          0  ISSUED:          0  USEFUL:          0  USELESS:          0
cpu0_ITLB AVERAGE MISS LATENCY: -nan cycles
cpu0_STLB TOTAL     ACCESS:    1577756  HIT:    1575418  MISS:       2338
cpu0_STLB LOAD      ACCESS:    1577756  HIT:    1575418  MISS:       2338
cpu0_STLB RFO       ACCESS:          0  HIT:          0  MISS:          0
cpu0_STLB PREFETCH  ACCESS:          0  HIT:          0  MISS:          0
cpu0_STLB WRITEBACK ACCESS:          0  HIT:          0  MISS:          0
cpu0_STLB TRANSLATION ACCESS:          0  HIT:          0  MISS:          0
cpu0_STLB PREFETCH  REQUESTED:          0  ISSUED:          0  USEFUL:          0  USELESS:          0
cpu0_STLB AVERAGE MISS LATENCY: 219.199 cycles
cpu0_L1D TOTAL     ACCESS:    6564974  HIT:    4177948  MISS:    2387026
cpu0_L1D LOAD      ACCESS:    6455704  HIT:    4070854  MISS:    2384850
cpu0_L1D RFO       ACCESS:     106932  HIT:     106932  MISS:          0
cpu0_L1D PREFETCH  ACCESS:          0  HIT:          0  MISS:          0
cpu0_L1D WRITEBACK ACCESS:          0  HIT:          0  MISS:          0
cpu0_L1D TRANSLATION ACCESS:       2338  HIT:        162  MISS:       2176
cpu0_L1D PREFETCH  REQUESTED:          0  ISSUED:          0  USEFUL:          0  USELESS:          0
cpu0_L1D AVERAGE MISS LATENCY: 81.9467 cycles
cpu0_L2C TOTAL     ACCESS:    2474985  HIT:     821400  MISS:    1653585
cpu0_L2C LOAD      ACCESS:    2384850  HIT:     731390  MISS:    1653460
cpu0_L2C RFO       ACCESS:          0  HIT:          0  MISS:          0
cpu0_L2C PREFETCH  ACCESS:          0  HIT:          0  MISS:          0
cpu0_L2C WRITEBACK ACCESS:      87959  HIT:      87940  MISS:         19
cpu0_L2C TRANSLATION ACCESS:       2176  HIT:       2070  MISS:        106
cpu0_L2C PREFETCH  REQUESTED:          0  ISSUED:          0  USEFUL:          0  USELESS:          0
cpu0_L2C AVERAGE MISS LATENCY: 102.089 cycles
LLC TOTAL     ACCESS:    1741236  HIT:    1008433  MISS:     732803
LLC LOAD      ACCESS:    1653460  HIT:     920869  MISS:     732591
LLC RFO       ACCESS:          0  HIT:          0  MISS:          0
LLC PREFETCH  ACCESS:          0  HIT:          0  MISS:          0
LLC WRITEBACK ACCESS:      87670  HIT:      87458  MISS:        212
LLC TRANSLATION ACCESS:        106  HIT:        106  MISS:          0
LLC PREFETCH  REQUESTED:          0  ISSUED:          0  USEFUL:          0  USELESS:          0
LLC AVERAGE MISS LATENCY: 182.98 cycles

DRAM Statistics
 CHANNEL 0
 RQ ROW_BUFFER_HIT:      16001  ROW_BUFFER_MISS:     716557
 DBUS AVG_CONGESTED_CYCLE:    3.73853
 WQ ROW_BUFFER_HIT:      44979  ROW_BUFFER_MISS:      39790  FULL:          0


CPU 0 Branch Prediction Accuracy: 84.6764% MPKI: 31.4387 Average ROB Occupancy at Mispredict: 14.6408
Branch type MPKI
BRANCH_DIRECT_JUMP: 0
BRANCH_INDIRECT: 0
BRANCH_CONDITIONAL: 31.4387
BRANCH_DIRECT_CALL: 0
BRANCH_INDIRECT_CALL: 0
BRANCH_RETURN: 0

