
*** ChampSim Multicore Out-of-Order Simulator ***

Warmup Instructions: 30000000
Simulation Instructions: 30000000
Number of CPUs: 1
Off-chip DRAM Size: 4 GiB Channels: 1 Width: 64-bit Data Rate: 3200 MT/s

VirtualMemory physical capacity: 8588881920 num_ppages: 2096895
VirtualMemory page size: 4096 log2_page_size: 12

CPU 0 runs gap_traces/cc-6.trace.gz
CPU 0 Bimodal branch predictor
Basic BTB sets: 1024 ways: 8 indirect buffer size: 4096 RAS size: 64
Heartbeat CPU 0 instructions: 10000001 cycles: 2549826 heartbeat IPC: 3.92184 cumulative IPC: 3.92184 (Simulation time: 0 hr 0 min 14 sec) 
Heartbeat CPU 0 instructions: 20000001 cycles: 5242340 heartbeat IPC: 3.714 cumulative IPC: 3.81509 (Simulation time: 0 hr 0 min 30 sec) 
Heartbeat CPU 0 instructions: 30000004 cycles: 8005862 heartbeat IPC: 3.61857 cumulative IPC: 3.74725 (Simulation time: 0 hr 0 min 47 sec) 

Warmup complete CPU 0 instructions: 30000004 cycles: 8005862 (Simulation time: 0 hr 0 min 47 sec) 

Heartbeat CPU 0 instructions: 40000000 cycles: 57092398 heartbeat IPC: 0.203722 cumulative IPC: 0.203722 (Simulation time: 0 hr 1 min 27 sec) 
Heartbeat CPU 0 instructions: 50000000 cycles: 105755985 heartbeat IPC: 0.205492 cumulative IPC: 0.204603 (Simulation time: 0 hr 2 min 7 sec) 
Heartbeat CPU 0 instructions: 60000003 cycles: 153079951 heartbeat IPC: 0.211309 cumulative IPC: 0.206791 (Simulation time: 0 hr 2 min 45 sec) 
Finished CPU 0 instructions: 30000004 cycles: 145074090 cumulative IPC: 0.206791 (Simulation time: 0 hr 2 min 45 sec) 

ChampSim completed all CPUs

Region of Interest Statistics

CPU 0 cumulative IPC: 0.206791 instructions: 30000004 cycles: 145074090
cpu0_DTLB TOTAL     ACCESS:    7949379  HIT:    6371641  MISS:    1577738
cpu0_DTLB LOAD      ACCESS:    7842796  HIT:    6265058  MISS:    1577738
cpu0_DTLB RFO       ACCESS:     106583  HIT:     106583  MISS:          0
cpu0_DTLB PREFETCH  ACCESS:          0  HIT:          0  MISS:          0
cpu0_DTLB WRITEBACK ACCESS:          0  HIT:          0  MISS:          0
cpu0_DTLB TRANSLATION ACCESS:          0  HIT:          0  MISS:          0
cpu0_DTLB PREFETCH  REQUESTED:          0  ISSUED:          0  USEFUL:          0  USELESS:          0
cpu0_DTLB AVERAGE MISS LATENCY: 9.74675 cycles
cpu0_ITLB TOTAL     ACCESS:    3223420  HIT:    3223420  MISS:          0
cpu0_ITLB LOAD      ACCESS:    3223420  HIT:    3223420  MISS:          0
cpu0_ITLB RFO       ACCESS:          0  HIT:          0  MISS:          0
cpu0_ITLB PREFETCH  ACCESS:          0  HIT:          0  MISS:          0
cpu0_ITLB WRITEBACK ACCESS:          0  HIT:          0  MISS:          0
cpu0_ITLB TRANSLATION ACCESS:          0  HIT:          0  MISS:          0
cpu0_ITLB PREFETCH  REQUESTED:          0  ISSUED:          0  USEFUL:          0  USELESS:          0
cpu0_ITLB AVERAGE MISS LATENCY: -nan cycles
cpu0_STLB TOTAL     ACCESS:    1577738  HIT:    1575400  MISS:       2338
cpu0_STLB LOAD      ACCESS:    1577738  HIT:    1575400  MISS:       2338
cpu0_STLB RFO       ACCESS:          0  HIT:          0  MISS:          0
cpu0_STLB PREFETCH  ACCESS:          0  HIT:          0  MISS:          0
cpu0_STLB WRITEBACK ACCESS:          0  HIT:          0  MISS:          0
cpu0_STLB TRANSLATION ACCESS:          0  HIT:          0  MISS:          0
cpu0_STLB PREFETCH  REQUESTED:          0  ISSUED:          0  USEFUL:          0  USELESS:          0
cpu0_STLB AVERAGE MISS LATENCY: 220.217 cycles
cpu0_L1D TOTAL     ACCESS:    6536473  HIT:    4149437  MISS:    2387036
cpu0_L1D LOAD      ACCESS:    6427203  HIT:    4042346  MISS:    2384857
cpu0_L1D RFO       ACCESS:     106932  HIT:     106932  MISS:          0
cpu0_L1D PREFETCH  ACCESS:          0  HIT:          0  MISS:          0
cpu0_L1D WRITEBACK ACCESS:          0  HIT:          0  MISS:          0
cpu0_L1D TRANSLATION ACCESS:       2338  HIT:        159  MISS:       2179
cpu0_L1D PREFETCH  REQUESTED:          0  ISSUED:          0  USEFUL:          0  USELESS:          0
cpu0_L1D AVERAGE MISS LATENCY: 77.9861 cycles
cpu0_L2C TOTAL     ACCESS:    2474995  HIT:     498599  MISS:    1976396
cpu0_L2C LOAD      ACCESS:    2384857  HIT:     408744  MISS:    1976113
cpu0_L2C RFO       ACCESS:          0  HIT:          0  MISS:          0
cpu0_L2C PREFETCH  ACCESS:          0  HIT:          0  MISS:          0
cpu0_L2C WRITEBACK ACCESS:      87959  HIT:      87832  MISS:        127
cpu0_L2C TRANSLATION ACCESS:       2179  HIT:       2023  MISS:        156
cpu0_L2C PREFETCH  REQUESTED:          0  ISSUED:          0  USEFUL:          0  USELESS:          0
cpu0_L2C AVERAGE MISS LATENCY: 80.6274 cycles
LLC TOTAL     ACCESS:    2064129  HIT:    1389439  MISS:     674690
LLC LOAD      ACCESS:    1976112  HIT:    1318802  MISS:     657310
LLC RFO       ACCESS:          0  HIT:          0  MISS:          0
LLC PREFETCH  ACCESS:          0  HIT:          0  MISS:          0
LLC WRITEBACK ACCESS:      87861  HIT:      70489  MISS:      17372
LLC TRANSLATION ACCESS:        156  HIT:        148  MISS:          8
LLC PREFETCH  REQUESTED:          0  ISSUED:          0  USEFUL:          0  USELESS:          0
LLC AVERAGE MISS LATENCY: 174.672 cycles

DRAM Statistics
 CHANNEL 0
 RQ ROW_BUFFER_HIT:      13820  ROW_BUFFER_MISS:     643491
 DBUS AVG_CONGESTED_CYCLE:    3.70515
 WQ ROW_BUFFER_HIT:      38306  ROW_BUFFER_MISS:      38389  FULL:          0


CPU 0 Branch Prediction Accuracy: 84.6764% MPKI: 31.4387 Average ROB Occupancy at Mispredict: 14.661
Branch type MPKI
BRANCH_DIRECT_JUMP: 0
BRANCH_INDIRECT: 0
BRANCH_CONDITIONAL: 31.4387
BRANCH_DIRECT_CALL: 0
BRANCH_INDIRECT_CALL: 0
BRANCH_RETURN: 0

