
*** ChampSim Multicore Out-of-Order Simulator ***

Warmup Instructions: 30000000
Simulation Instructions: 30000000
Number of CPUs: 1
Off-chip DRAM Size: 4 GiB Channels: 1 Width: 64-bit Data Rate: 3200 MT/s

VirtualMemory physical capacity: 8588881920 num_ppages: 2096895
VirtualMemory page size: 4096 log2_page_size: 12

CPU 0 runs gap_traces/cc-6.trace.gz
CPU 0 Bimodal branch predictor
Basic BTB sets: 1024 ways: 8 indirect buffer size: 4096 RAS size: 64
Heartbeat CPU 0 instructions: 10000001 cycles: 2549795 heartbeat IPC: 3.92188 cumulative IPC: 3.92188 (Simulation time: 0 hr 0 min 15 sec) 
Heartbeat CPU 0 instructions: 20000000 cycles: 5242301 heartbeat IPC: 3.71401 cumulative IPC: 3.81512 (Simulation time: 0 hr 0 min 33 sec) 
Heartbeat CPU 0 instructions: 30000004 cycles: 8005825 heartbeat IPC: 3.61857 cumulative IPC: 3.74727 (Simulation time: 0 hr 0 min 52 sec) 

Warmup complete CPU 0 instructions: 30000004 cycles: 8005825 (Simulation time: 0 hr 0 min 52 sec) 

Heartbeat CPU 0 instructions: 40000000 cycles: 48827702 heartbeat IPC: 0.244967 cumulative IPC: 0.244967 (Simulation time: 0 hr 1 min 29 sec) 
Heartbeat CPU 0 instructions: 50000000 cycles: 89315316 heartbeat IPC: 0.246989 cumulative IPC: 0.245974 (Simulation time: 0 hr 2 min 6 sec) 
Heartbeat CPU 0 instructions: 60000003 cycles: 128765355 heartbeat IPC: 0.253485 cumulative IPC: 0.248428 (Simulation time: 0 hr 2 min 41 sec) 
Finished CPU 0 instructions: 30000004 cycles: 120759531 cumulative IPC: 0.248428 (Simulation time: 0 hr 2 min 41 sec) 

ChampSim completed all CPUs

Region of Interest Statistics

CPU 0 cumulative IPC: 0.248428 instructions: 30000004 cycles: 120759531
cpu0_DTLB TOTAL     ACCESS:    7900598  HIT:    6322853  MISS:    1577745
cpu0_DTLB LOAD      ACCESS:    7793981  HIT:    6216236  MISS:    1577745
cpu0_DTLB RFO       ACCESS:     106617  HIT:     106617  MISS:          0
cpu0_DTLB PREFETCH  ACCESS:          0  HIT:          0  MISS:          0
cpu0_DTLB WRITEBACK ACCESS:          0  HIT:          0  MISS:          0
cpu0_DTLB TRANSLATION ACCESS:          0  HIT:          0  MISS:          0
cpu0_DTLB PREFETCH  REQUESTED:          0  ISSUED:          0  USEFUL:          0  USELESS:          0
cpu0_DTLB AVERAGE MISS LATENCY: 9.74527 cycles
cpu0_ITLB TOTAL     ACCESS:    3233553  HIT:    3233553  MISS:          0
cpu0_ITLB LOAD      ACCESS:    3233553  HIT:    3233553  MISS:          0
cpu0_ITLB RFO       ACCESS:          0  HIT:          0  MISS:          0
cpu0_ITLB PREFETCH  ACCESS:          0  HIT:          0  MISS:          0
cpu0_ITLB WRITEBACK ACCESS:          0  HIT:          0  MISS:          0
cpu0_ITLB TRANSLATION ACCESS:          0  HIT:          0  MISS:          0
cpu0_ITLB PREFETCH  REQUESTED:          0  ISSUED:          0  USEFUL:          0  USELESS:          0
cpu0_ITLB AVERAGE MISS LATENCY: -nan cycles
cpu0_STLB TOTAL     ACCESS:    1577745  HIT:    1575407  MISS:       2338
cpu0_STLB LOAD      ACCESS:    1577745  HIT:    1575407  MISS:       2338
cpu0_STLB RFO       ACCESS:          0  HIT:          0  MISS:          0
cpu0_STLB PREFETCH  ACCESS:          0  HIT:          0  MISS:          0
cpu0_STLB WRITEBACK ACCESS:          0  HIT:          0  MISS:          0
cpu0_STLB TRANSLATION ACCESS:          0  HIT:          0  MISS:          0
cpu0_STLB PREFETCH  REQUESTED:          0  ISSUED:          0  USEFUL:          0  USELESS:          0
cpu0_STLB AVERAGE MISS LATENCY: 218.256 cycles
cpu0_L1D TOTAL     ACCESS:    6449568  HIT:    4062541  MISS:    2387027
cpu0_L1D LOAD      ACCESS:    6340298  HIT:    3955448  MISS:    2384850
cpu0_L1D RFO       ACCESS:     106932  HIT:     106932  MISS:          0
cpu0_L1D PREFETCH  ACCESS:          0  HIT:          0  MISS:          0
cpu0_L1D WRITEBACK ACCESS:          0  HIT:          0  MISS:          0
cpu0_L1D TRANSLATION ACCESS:       2338  HIT:        161  MISS:       2177
cpu0_L1D PREFETCH  REQUESTED:          0  ISSUED:          0  USEFUL:          0  USELESS:          0
cpu0_L1D AVERAGE MISS LATENCY: 52.9529 cycles
cpu0_L2C TOTAL     ACCESS:    2474986  HIT:    1722275  MISS:     752711
cpu0_L2C LOAD      ACCESS:    2384850  HIT:    1632139  MISS:     752711
cpu0_L2C RFO       ACCESS:          0  HIT:          0  MISS:          0
cpu0_L2C PREFETCH  ACCESS:          0  HIT:          0  MISS:          0
cpu0_L2C WRITEBACK ACCESS:      87959  HIT:      87959  MISS:          0
cpu0_L2C TRANSLATION ACCESS:       2177  HIT:       2177  MISS:          0
cpu0_L2C PREFETCH  REQUESTED:          0  ISSUED:          0  USEFUL:          0  USELESS:          0
cpu0_L2C AVERAGE MISS LATENCY: 132.312 cycles
LLC TOTAL     ACCESS:     836575  HIT:     304089  MISS:     532486
LLC LOAD      ACCESS:     752709  HIT:     264499  MISS:     488210
LLC RFO       ACCESS:          0  HIT:          0  MISS:          0
LLC PREFETCH  ACCESS:          0  HIT:          0  MISS:          0
LLC WRITEBACK ACCESS:      83866  HIT:      39590  MISS:      44276
LLC TRANSLATION ACCESS:          0  HIT:          0  MISS:          0
LLC PREFETCH  REQUESTED:          0  ISSUED:          0  USEFUL:          0  USELESS:          0
LLC AVERAGE MISS LATENCY: 157.348 cycles

DRAM Statistics
 CHANNEL 0
 RQ ROW_BUFFER_HIT:      13218  ROW_BUFFER_MISS:     474982
 DBUS AVG_CONGESTED_CYCLE:    3.64611
 WQ ROW_BUFFER_HIT:      34497  ROW_BUFFER_MISS:      42134  FULL:          0


CPU 0 Branch Prediction Accuracy: 84.6764% MPKI: 31.4387 Average ROB Occupancy at Mispredict: 14.5405
Branch type MPKI
BRANCH_DIRECT_JUMP: 0
BRANCH_INDIRECT: 0
BRANCH_CONDITIONAL: 31.4387
BRANCH_DIRECT_CALL: 0
BRANCH_INDIRECT_CALL: 0
BRANCH_RETURN: 0

