
*** ChampSim Multicore Out-of-Order Simulator ***

Warmup Instructions: 30000000
Simulation Instructions: 30000000
Number of CPUs: 1
Off-chip DRAM Size: 4 GiB Channels: 1 Width: 64-bit Data Rate: 3200 MT/s

VirtualMemory physical capacity: 8588881920 num_ppages: 2096895
VirtualMemory page size: 4096 log2_page_size: 12

CPU 0 runs gap_traces/cc-6.trace.gz
CPU 0 Bimodal branch predictor
Basic BTB sets: 1024 ways: 8 indirect buffer size: 4096 RAS size: 64
Heartbeat CPU 0 instructions: 10000004 cycles: 2549816 heartbeat IPC: 3.92185 cumulative IPC: 3.92185 (Simulation time: 0 hr 0 min 14 sec) 
Heartbeat CPU 0 instructions: 20000001 cycles: 5242323 heartbeat IPC: 3.71401 cumulative IPC: 3.8151 (Simulation time: 0 hr 0 min 30 sec) 
Heartbeat CPU 0 instructions: 30000004 cycles: 8005842 heartbeat IPC: 3.61858 cumulative IPC: 3.74726 (Simulation time: 0 hr 0 min 46 sec) 

Warmup complete CPU 0 instructions: 30000004 cycles: 8005842 (Simulation time: 0 hr 0 min 46 sec) 

Heartbeat CPU 0 instructions: 40000000 cycles: 54443973 heartbeat IPC: 0.21534 cumulative IPC: 0.21534 (Simulation time: 0 hr 1 min 25 sec) 
Heartbeat CPU 0 instructions: 50000000 cycles: 100536414 heartbeat IPC: 0.216955 cumulative IPC: 0.216145 (Simulation time: 0 hr 2 min 3 sec) 
Heartbeat CPU 0 instructions: 60000003 cycles: 145435251 heartbeat IPC: 0.222723 cumulative IPC: 0.218294 (Simulation time: 0 hr 2 min 42 sec) 
Finished CPU 0 instructions: 30000004 cycles: 137429410 cumulative IPC: 0.218294 (Simulation time: 0 hr 2 min 42 sec) 

ChampSim completed all CPUs

Region of Interest Statistics

CPU 0 cumulative IPC: 0.218294 instructions: 30000004 cycles: 137429410
cpu0_DTLB TOTAL     ACCESS:    7955409  HIT:    6377657  MISS:    1577752
cpu0_DTLB LOAD      ACCESS:    7848829  HIT:    6271077  MISS:    1577752
cpu0_DTLB RFO       ACCESS:     106580  HIT:     106580  MISS:          0
cpu0_DTLB PREFETCH  ACCESS:          0  HIT:          0  MISS:          0
cpu0_DTLB WRITEBACK ACCESS:          0  HIT:          0  MISS:          0
cpu0_DTLB TRANSLATION ACCESS:          0  HIT:          0  MISS:          0
cpu0_DTLB PREFETCH  REQUESTED:          0  ISSUED:          0  USEFUL:          0  USELESS:          0
cpu0_DTLB AVERAGE MISS LATENCY: 9.74498 cycles
cpu0_ITLB TOTAL     ACCESS:    3225946  HIT:    3225946  MISS:          0
cpu0_ITLB LOAD      ACCESS:    3225946  HIT:    3225946  MISS:          0
cpu0_ITLB RFO       ACCESS:          0  HIT:          0  MISS:          0
cpu0_ITLB PREFETCH  ACCESS:          0  HIT:          0  MISS:          0
cpu0_ITLB WRITEBACK ACCESS:          0  HIT:          0  MISS:          0
cpu0_ITLB TRANSLATION ACCESS:          0  HIT:          0  MISS:          0
cpu0_ITLB PREFETCH  REQUESTED:          0  ISSUED:          0  USEFUL:          0  USELESS:          0
cpu0_ITLB AVERAGE MISS LATENCY: -nan cycles
cpu0_STLB TOTAL     ACCESS:    1577752  HIT:    1575414  MISS:       2338
cpu0_STLB LOAD      ACCESS:    1577752  HIT:    1575414  MISS:       2338
cpu0_STLB RFO       ACCESS:          0  HIT:          0  MISS:          0
cpu0_STLB PREFETCH  ACCESS:          0  HIT:          0  MISS:          0
cpu0_STLB WRITEBACK ACCESS:          0  HIT:          0  MISS:          0
cpu0_STLB TRANSLATION ACCESS:          0  HIT:          0  MISS:          0
cpu0_STLB PREFETCH  REQUESTED:          0  ISSUED:          0  USEFUL:          0  USELESS:          0
cpu0_STLB AVERAGE MISS LATENCY: 218.881 cycles
cpu0_L1D TOTAL     ACCESS:    6522820  HIT:    4135779  MISS:    2387041
cpu0_L1D LOAD      ACCESS:    6413550  HIT:    4028684  MISS:    2384866
cpu0_L1D RFO       ACCESS:     106932  HIT:     106932  MISS:          0
cpu0_L1D PREFETCH  ACCESS:          0  HIT:          0  MISS:          0
cpu0_L1D WRITEBACK ACCESS:          0  HIT:          0  MISS:          0
cpu0_L1D TRANSLATION ACCESS:       2338  HIT:        163  MISS:       2175
cpu0_L1D PREFETCH  REQUESTED:          0  ISSUED:          0  USEFUL:          0  USELESS:          0
cpu0_L1D AVERAGE MISS LATENCY: 68.8254 cycles
cpu0_L2C TOTAL     ACCESS:    2475000  HIT:    1246095  MISS:    1228905
cpu0_L2C LOAD      ACCESS:    2384866  HIT:    1155980  MISS:    1228886
cpu0_L2C RFO       ACCESS:          0  HIT:          0  MISS:          0
cpu0_L2C PREFETCH  ACCESS:          0  HIT:          0  MISS:          0
cpu0_L2C WRITEBACK ACCESS:      87959  HIT:      87957  MISS:          2
cpu0_L2C TRANSLATION ACCESS:       2175  HIT:       2158  MISS:         17
cpu0_L2C PREFETCH  REQUESTED:          0  ISSUED:          0  USEFUL:          0  USELESS:          0
cpu0_L2C AVERAGE MISS LATENCY: 111.881 cycles
LLC TOTAL     ACCESS:    1316035  HIT:     653198  MISS:     662837
LLC LOAD      ACCESS:    1228886  HIT:     602623  MISS:     626263
LLC RFO       ACCESS:          0  HIT:          0  MISS:          0
LLC PREFETCH  ACCESS:          0  HIT:          0  MISS:          0
LLC WRITEBACK ACCESS:      87132  HIT:      50565  MISS:      36567
LLC TRANSLATION ACCESS:         17  HIT:         10  MISS:          7
LLC PREFETCH  REQUESTED:          0  ISSUED:          0  USEFUL:          0  USELESS:          0
LLC AVERAGE MISS LATENCY: 168.494 cycles

DRAM Statistics
 CHANNEL 0
 RQ ROW_BUFFER_HIT:      12939  ROW_BUFFER_MISS:     613308
 DBUS AVG_CONGESTED_CYCLE:     3.6986
 WQ ROW_BUFFER_HIT:      39435  ROW_BUFFER_MISS:      39325  FULL:          0


CPU 0 Branch Prediction Accuracy: 84.6764% MPKI: 31.4387 Average ROB Occupancy at Mispredict: 14.6033
Branch type MPKI
BRANCH_DIRECT_JUMP: 0
BRANCH_INDIRECT: 0
BRANCH_CONDITIONAL: 31.4387
BRANCH_DIRECT_CALL: 0
BRANCH_INDIRECT_CALL: 0
BRANCH_RETURN: 0

