
*** ChampSim Multicore Out-of-Order Simulator ***

Warmup Instructions: 30000000
Simulation Instructions: 30000000
Number of CPUs: 1
Off-chip DRAM Size: 4 GiB Channels: 1 Width: 64-bit Data Rate: 3200 MT/s

VirtualMemory physical capacity: 8588881920 num_ppages: 2096895
VirtualMemory page size: 4096 log2_page_size: 12

CPU 0 runs gap_traces/cc-6.trace.gz
CPU 0 Bimodal branch predictor
Basic BTB sets: 1024 ways: 8 indirect buffer size: 4096 RAS size: 64
Heartbeat CPU 0 instructions: 10000001 cycles: 2549831 heartbeat IPC: 3.92183 cumulative IPC: 3.92183 (Simulation time: 0 hr 0 min 14 sec) 
Heartbeat CPU 0 instructions: 20000002 cycles: 5242342 heartbeat IPC: 3.71401 cumulative IPC: 3.81509 (Simulation time: 0 hr 0 min 31 sec) 
Heartbeat CPU 0 instructions: 30000004 cycles: 8005868 heartbeat IPC: 3.61857 cumulative IPC: 3.74725 (Simulation time: 0 hr 0 min 50 sec) 

Warmup complete CPU 0 instructions: 30000004 cycles: 8005868 (Simulation time: 0 hr 0 min 50 sec) 

Heartbeat CPU 0 instructions: 40000000 cycles: 57581984 heartbeat IPC: 0.20171 cumulative IPC: 0.20171 (Simulation time: 0 hr 1 min 31 sec) 
Heartbeat CPU 0 instructions: 50000000 cycles: 106735785 heartbeat IPC: 0.203443 cumulative IPC: 0.202573 (Simulation time: 0 hr 2 min 13 sec) 
Heartbeat CPU 0 instructions: 60000003 cycles: 154462590 heartbeat IPC: 0.209526 cumulative IPC: 0.204839 (Simulation time: 0 hr 2 min 53 sec) 
Finished CPU 0 instructions: 30000004 cycles: 146456723 cumulative IPC: 0.204839 (Simulation time: 0 hr 2 min 53 sec) 

ChampSim completed all CPUs

Region of Interest Statistics

CPU 0 cumulative IPC: 0.204839 instructions: 30000004 cycles: 146456723
cpu0_DTLB TOTAL     ACCESS:    7929520  HIT:    6351755  MISS:    1577765
cpu0_DTLB LOAD      ACCESS:    7822925  HIT:    6245160  MISS:    1577765
cpu0_DTLB RFO       ACCESS:     106595  HIT:     106595  MISS:          0
cpu0_DTLB PREFETCH  ACCESS:          0  HIT:          0  MISS:          0
cpu0_DTLB WRITEBACK ACCESS:          0  HIT:          0  MISS:          0
cpu0_DTLB TRANSLATION ACCESS:          0  HIT:          0  MISS:          0
cpu0_DTLB PREFETCH  REQUESTED:          0  ISSUED:          0  USEFUL:          0  USELESS:          0
cpu0_DTLB AVERAGE MISS LATENCY: 9.74895 cycles
cpu0_ITLB TOTAL     ACCESS:    3223450  HIT:    3223450  MISS:          0
cpu0_ITLB LOAD      ACCESS:    3223450  HIT:    3223450  MISS:          0
cpu0_ITLB RFO       ACCESS:          0  HIT:          0  MISS:          0
cpu0_ITLB PREFETCH  ACCESS:          0  HIT:          0  MISS:          0
cpu0_ITLB WRITEBACK ACCESS:          0  HIT:          0  MISS:          0
cpu0_ITLB TRANSLATION ACCESS:          0  HIT:          0  MISS:          0
cpu0_ITLB PREFETCH  REQUESTED:          0  ISSUED:          0  USEFUL:          0  USELESS:          0
cpu0_ITLB AVERAGE MISS LATENCY: -nan cycles
cpu0_STLB TOTAL     ACCESS:    1577765  HIT:    1575427  MISS:       2338
cpu0_STLB LOAD      ACCESS:    1577765  HIT:    1575427  MISS:       2338
cpu0_STLB RFO       ACCESS:          0  HIT:          0  MISS:          0
cpu0_STLB PREFETCH  ACCESS:          0  HIT:          0  MISS:          0
cpu0_STLB WRITEBACK ACCESS:          0  HIT:          0  MISS:          0
cpu0_STLB TRANSLATION ACCESS:          0  HIT:          0  MISS:          0
cpu0_STLB PREFETCH  REQUESTED:          0  ISSUED:          0  USEFUL:          0  USELESS:          0
cpu0_STLB AVERAGE MISS LATENCY: 221.328 cycles
cpu0_L1D TOTAL     ACCESS:    6513918  HIT:    4126904  MISS:    2387014
cpu0_L1D LOAD      ACCESS:    6404648  HIT:    4019810  MISS:    2384838
cpu0_L1D RFO       ACCESS:     106932  HIT:     106932  MISS:          0
cpu0_L1D PREFETCH  ACCESS:          0  HIT:          0  MISS:          0
cpu0_L1D WRITEBACK ACCESS:          0  HIT:          0  MISS:          0
cpu0_L1D TRANSLATION ACCESS:       2338  HIT:        162  MISS:       2176
cpu0_L1D PREFETCH  REQUESTED:          0  ISSUED:          0  USEFUL:          0  USELESS:          0
cpu0_L1D AVERAGE MISS LATENCY: 79.9829 cycles
cpu0_L2C TOTAL     ACCESS:    2474973  HIT:     268944  MISS:    2206029
cpu0_L2C LOAD      ACCESS:    2384838  HIT:     179929  MISS:    2204909
cpu0_L2C RFO       ACCESS:          0  HIT:          0  MISS:          0
cpu0_L2C PREFETCH  ACCESS:          0  HIT:          0  MISS:          0
cpu0_L2C WRITEBACK ACCESS:      87959  HIT:      87182  MISS:        777
cpu0_L2C TRANSLATION ACCESS:       2176  HIT:       1833  MISS:        343
cpu0_L2C PREFETCH  REQUESTED:          0  ISSUED:          0  USEFUL:          0  USELESS:          0
cpu0_L2C AVERAGE MISS LATENCY: 74.3951 cycles
LLC TOTAL     ACCESS:    2293189  HIT:    1625471  MISS:     667718
LLC LOAD      ACCESS:    2204909  HIT:    1546753  MISS:     658156
LLC RFO       ACCESS:          0  HIT:          0  MISS:          0
LLC PREFETCH  ACCESS:          0  HIT:          0  MISS:          0
LLC WRITEBACK ACCESS:      87937  HIT:      78375  MISS:       9562
LLC TRANSLATION ACCESS:        343  HIT:        343  MISS:          0
LLC PREFETCH  REQUESTED:          0  ISSUED:          0  USEFUL:          0  USELESS:          0
LLC AVERAGE MISS LATENCY: 176.432 cycles

DRAM Statistics
 CHANNEL 0
 RQ ROW_BUFFER_HIT:      13738  ROW_BUFFER_MISS:     644406
 DBUS AVG_CONGESTED_CYCLE:    3.70548
 WQ ROW_BUFFER_HIT:      37660  ROW_BUFFER_MISS:      39090  FULL:          0


CPU 0 Branch Prediction Accuracy: 84.6764% MPKI: 31.4387 Average ROB Occupancy at Mispredict: 14.6734
Branch type MPKI
BRANCH_DIRECT_JUMP: 0
BRANCH_INDIRECT: 0
BRANCH_CONDITIONAL: 31.4387
BRANCH_DIRECT_CALL: 0
BRANCH_INDIRECT_CALL: 0
BRANCH_RETURN: 0

