
*** ChampSim Multicore Out-of-Order Simulator ***

Warmup Instructions: 30000000
Simulation Instructions: 30000000
Number of CPUs: 1
Off-chip DRAM Size: 4 GiB Channels: 1 Width: 64-bit Data Rate: 3200 MT/s

VirtualMemory physical capacity: 8588881920 num_ppages: 2096895
VirtualMemory page size: 4096 log2_page_size: 12

CPU 0 runs gap_traces/cc-6.trace.gz
CPU 0 Bimodal branch predictor
Basic BTB sets: 1024 ways: 8 indirect buffer size: 4096 RAS size: 64
Heartbeat CPU 0 instructions: 10000001 cycles: 2549734 heartbeat IPC: 3.92198 cumulative IPC: 3.92198 (Simulation time: 0 hr 0 min 16 sec) 
Heartbeat CPU 0 instructions: 20000000 cycles: 5242229 heartbeat IPC: 3.71403 cumulative IPC: 3.81517 (Simulation time: 0 hr 0 min 33 sec) 
Heartbeat CPU 0 instructions: 30000004 cycles: 8005746 heartbeat IPC: 3.61858 cumulative IPC: 3.74731 (Simulation time: 0 hr 0 min 51 sec) 

Warmup complete CPU 0 instructions: 30000004 cycles: 8005746 (Simulation time: 0 hr 0 min 51 sec) 

Heartbeat CPU 0 instructions: 40000000 cycles: 32405471 heartbeat IPC: 0.409841 cumulative IPC: 0.409841 (Simulation time: 0 hr 1 min 16 sec) 
Heartbeat CPU 0 instructions: 50000000 cycles: 56810705 heartbeat IPC: 0.409748 cumulative IPC: 0.409794 (Simulation time: 0 hr 1 min 41 sec) 
Heartbeat CPU 0 instructions: 60000003 cycles: 80334888 heartbeat IPC: 0.425095 cumulative IPC: 0.414771 (Simulation time: 0 hr 2 min 6 sec) 
Finished CPU 0 instructions: 30000004 cycles: 72329143 cumulative IPC: 0.414771 (Simulation time: 0 hr 2 min 6 sec) 

ChampSim completed all CPUs

Region of Interest Statistics

CPU 0 cumulative IPC: 0.414771 instructions: 30000004 cycles: 72329143
cpu0_DTLB TOTAL     ACCESS:    7797161  HIT:    6219440  MISS:    1577721
cpu0_DTLB LOAD      ACCESS:    7690456  HIT:    6112735  MISS:    1577721
cpu0_DTLB RFO       ACCESS:     106705  HIT:     106705  MISS:          0
cpu0_DTLB PREFETCH  ACCESS:          0  HIT:          0  MISS:          0
cpu0_DTLB WRITEBACK ACCESS:          0  HIT:          0  MISS:          0
cpu0_DTLB TRANSLATION ACCESS:          0  HIT:          0  MISS:          0
cpu0_DTLB PREFETCH  REQUESTED:          0  ISSUED:          0  USEFUL:          0  USELESS:          0
cpu0_DTLB AVERAGE MISS LATENCY: 9.74886 cycles
cpu0_ITLB TOTAL     ACCESS:    3262786  HIT:    3262786  MISS:          0
cpu0_ITLB LOAD      ACCESS:    3262786  HIT:    3262786  MISS:          0
cpu0_ITLB RFO       ACCESS:          0  HIT:          0  MISS:          0
cpu0_ITLB PREFETCH  ACCESS:          0  HIT:          0  MISS:          0
cpu0_ITLB WRITEBACK ACCESS:          0  HIT:          0  MISS:          0
cpu0_ITLB TRANSLATION ACCESS:          0  HIT:          0  MISS:          0
cpu0_ITLB PREFETCH  REQUESTED:          0  ISSUED:          0  USEFUL:          0  USELESS:          0
cpu0_ITLB AVERAGE MISS LATENCY: -nan cycles
cpu0_STLB TOTAL     ACCESS:    1577721  HIT:    1575383  MISS:       2338
cpu0_STLB LOAD      ACCESS:    1577721  HIT:    1575383  MISS:       2338
cpu0_STLB RFO       ACCESS:          0  HIT:          0  MISS:          0
cpu0_STLB PREFETCH  ACCESS:          0  HIT:          0  MISS:          0
cpu0_STLB WRITEBACK ACCESS:          0  HIT:          0  MISS:          0
cpu0_STLB TRANSLATION ACCESS:          0  HIT:          0  MISS:          0
cpu0_STLB PREFETCH  REQUESTED:          0  ISSUED:          0  USEFUL:          0  USELESS:          0
cpu0_STLB AVERAGE MISS LATENCY: 218.249 cycles
cpu0_L1D TOTAL     ACCESS:    6310101  HIT:    3923085  MISS:    2387016
cpu0_L1D LOAD      ACCESS:    6200831  HIT:    3815991  MISS:    2384840
cpu0_L1D RFO       ACCESS:     106932  HIT:     106932  MISS:          0
cpu0_L1D PREFETCH  ACCESS:          0  HIT:          0  MISS:          0
cpu0_L1D WRITEBACK ACCESS:          0  HIT:          0  MISS:          0
cpu0_L1D TRANSLATION ACCESS:       2338  HIT:        162  MISS:       2176
cpu0_L1D PREFETCH  REQUESTED:          0  ISSUED:          0  USEFUL:          0  USELESS:          0
cpu0_L1D AVERAGE MISS LATENCY: 20.3478 cycles
cpu0_L2C TOTAL     ACCESS:    2474975  HIT:    2294286  MISS:     180689
cpu0_L2C LOAD      ACCESS:    2384840  HIT:    2204151  MISS:     180689
cpu0_L2C RFO       ACCESS:          0  HIT:          0  MISS:          0
cpu0_L2C PREFETCH  ACCESS:          0  HIT:          0  MISS:          0
cpu0_L2C WRITEBACK ACCESS:      87959  HIT:      87959  MISS:          0
cpu0_L2C TRANSLATION ACCESS:       2176  HIT:       2176  MISS:          0
cpu0_L2C PREFETCH  REQUESTED:          0  ISSUED:          0  USEFUL:          0  USELESS:          0
cpu0_L2C AVERAGE MISS LATENCY: 120.153 cycles
LLC TOTAL     ACCESS:     201467  HIT:      18872  MISS:     182595
LLC LOAD      ACCESS:     180689  HIT:      14995  MISS:     165694
LLC RFO       ACCESS:          0  HIT:          0  MISS:          0
LLC PREFETCH  ACCESS:          0  HIT:          0  MISS:          0
LLC WRITEBACK ACCESS:      20778  HIT:       3877  MISS:      16901
LLC TRANSLATION ACCESS:          0  HIT:          0  MISS:          0
LLC PREFETCH  REQUESTED:          0  ISSUED:          0  USEFUL:          0  USELESS:          0
LLC AVERAGE MISS LATENCY: 98.1176 cycles

DRAM Statistics
 CHANNEL 0
 RQ ROW_BUFFER_HIT:      90220  ROW_BUFFER_MISS:      75472
 DBUS AVG_CONGESTED_CYCLE:    3.56054
 WQ ROW_BUFFER_HIT:       2223  ROW_BUFFER_MISS:      16854  FULL:          0


CPU 0 Branch Prediction Accuracy: 84.6764% MPKI: 31.4387 Average ROB Occupancy at Mispredict: 14.3722
Branch type MPKI
BRANCH_DIRECT_JUMP: 0
BRANCH_INDIRECT: 0
BRANCH_CONDITIONAL: 31.4387
BRANCH_DIRECT_CALL: 0
BRANCH_INDIRECT_CALL: 0
BRANCH_RETURN: 0

