
*** ChampSim Multicore Out-of-Order Simulator ***

Warmup Instructions: 30000000
Simulation Instructions: 30000000
Number of CPUs: 1
Off-chip DRAM Size: 4 GiB Channels: 1 Width: 64-bit Data Rate: 3200 MT/s

VirtualMemory physical capacity: 8588881920 num_ppages: 2096895
VirtualMemory page size: 4096 log2_page_size: 12

CPU 0 runs gap_traces/bfs-3.trace.gz
CPU 0 Bimodal branch predictor
Basic BTB sets: 1024 ways: 8 indirect buffer size: 4096 RAS size: 64
Heartbeat CPU 0 instructions: 10000003 cycles: 2500200 heartbeat IPC: 3.99968 cumulative IPC: 3.99968 (Simulation time: 0 hr 0 min 13 sec) 
Heartbeat CPU 0 instructions: 20000000 cycles: 5135372 heartbeat IPC: 3.79482 cumulative IPC: 3.89456 (Simulation time: 0 hr 0 min 29 sec) 
Heartbeat CPU 0 instructions: 30000002 cycles: 7762209 heartbeat IPC: 3.80686 cumulative IPC: 3.86488 (Simulation time: 0 hr 0 min 46 sec) 

Warmup complete CPU 0 instructions: 30000002 cycles: 7762209 (Simulation time: 0 hr 0 min 46 sec) 

Heartbeat CPU 0 instructions: 40000002 cycles: 41081775 heartbeat IPC: 0.300124 cumulative IPC: 0.300124 (Simulation time: 0 hr 1 min 10 sec) 
Heartbeat CPU 0 instructions: 50000000 cycles: 71660621 heartbeat IPC: 0.327023 cumulative IPC: 0.312997 (Simulation time: 0 hr 1 min 34 sec) 
Heartbeat CPU 0 instructions: 60000000 cycles: 98254838 heartbeat IPC: 0.376022 cumulative IPC: 0.331519 (Simulation time: 0 hr 1 min 57 sec) 
Finished CPU 0 instructions: 30000002 cycles: 90492630 cumulative IPC: 0.331519 (Simulation time: 0 hr 1 min 57 sec) 

ChampSim completed all CPUs

Region of Interest Statistics

CPU 0 cumulative IPC: 0.331519 instructions: 30000002 cycles: 90492630
cpu0_DTLB TOTAL     ACCESS:    6722655  HIT:    6680535  MISS:      42120
cpu0_DTLB LOAD      ACCESS:    5965116  HIT:    5923129  MISS:      41987
cpu0_DTLB RFO       ACCESS:     757539  HIT:     757406  MISS:        133
cpu0_DTLB PREFETCH  ACCESS:          0  HIT:          0  MISS:          0
cpu0_DTLB WRITEBACK ACCESS:          0  HIT:          0  MISS:          0
cpu0_DTLB TRANSLATION ACCESS:          0  HIT:          0  MISS:          0
cpu0_DTLB PREFETCH  REQUESTED:          0  ISSUED:          0  USEFUL:          0  USELESS:          0
cpu0_DTLB AVERAGE MISS LATENCY: 65.6222 cycles
cpu0_ITLB TOTAL     ACCESS:    3444641  HIT:    3444641  MISS:          0
cpu0_ITLB LOAD      ACCESS:    3444641  HIT:    3444641  MISS:          0
cpu0_ITLB RFO       ACCESS:          0  HIT:          0  MISS:          0
cpu0_ITLB PREFETCH  ACCESS:          0  HIT:          0  MISS:          0
cpu0_ITLB WRITEBACK ACCESS:          0  HIT:          0  MISS:          0
cpu0_ITLB TRANSLATION ACCESS:          0  HIT:          0  MISS:          0
cpu0_ITLB PREFETCH  REQUESTED:          0  ISSUED:          0  USEFUL:          0  USELESS:          0
cpu0_ITLB AVERAGE MISS LATENCY: -nan cycles
cpu0_L1I TOTAL     ACCESS:         91  HIT:         90  MISS:          1
cpu0_L1I LOAD      ACCESS:         91  HIT:         90  MISS:          1
cpu0_L1I RFO       ACCESS:          0  HIT:          0  MISS:          0
cpu0_L1I PREFETCH  ACCESS:          0  HIT:          0  MISS:          0
cpu0_L1I WRITEBACK ACCESS:          0  HIT:          0  MISS:          0
cpu0_L1I TRANSLATION ACCESS:          0  HIT:          0  MISS:          0
cpu0_L1I PREFETCH  REQUESTED:          0  ISSUED:          0  USEFUL:          0  USELESS:          0
cpu0_L1I AVERAGE MISS LATENCY: 194 cycles
cpu0_STLB TOTAL     ACCESS:      42120  HIT:       3899  MISS:      38221
cpu0_STLB LOAD      ACCESS:      41987  HIT:       3813  MISS:      38174
cpu0_STLB RFO       ACCESS:        133  HIT:         86  MISS:         47
cpu0_STLB PREFETCH  ACCESS:          0  HIT:          0  MISS:          0
cpu0_STLB WRITEBACK ACCESS:          0  HIT:          0  MISS:          0
cpu0_STLB TRANSLATION ACCESS:          0  HIT:          0  MISS:          0
cpu0_STLB PREFETCH  REQUESTED:          0  ISSUED:          0  USEFUL:          0  USELESS:          0
cpu0_STLB AVERAGE MISS LATENCY: 62.3982 cycles
cpu0_L1D TOTAL     ACCESS:    7233539  HIT:    6032696  MISS:    1200843
cpu0_L1D LOAD      ACCESS:    5826193  HIT:    4630330  MISS:    1195863
cpu0_L1D RFO       ACCESS:     799476  HIT:     795718  MISS:       3758
cpu0_L1D PREFETCH  ACCESS:          0  HIT:          0  MISS:          0
cpu0_L1D WRITEBACK ACCESS:     569652  HIT:     569652  MISS:          0
cpu0_L1D TRANSLATION ACCESS:      38218  HIT:      36996  MISS:       1222
cpu0_L1D PREFETCH  REQUESTED:          0  ISSUED:          0  USEFUL:          0  USELESS:          0
cpu0_L1D AVERAGE MISS LATENCY: 43.8585 cycles
cpu0_L2C TOTAL     ACCESS:    2835330  HIT:    1004284  MISS:    1831046
cpu0_L2C LOAD      ACCESS:    1195847  HIT:     565762  MISS:     630085
cpu0_L2C RFO       ACCESS:       3758  HIT:       3242  MISS:        516
cpu0_L2C PREFETCH  ACCESS:          0  HIT:          0  MISS:          0
cpu0_L2C WRITEBACK ACCESS:    1634504  HIT:     434083  MISS:    1200421
cpu0_L2C TRANSLATION ACCESS:       1221  HIT:       1197  MISS:         24
cpu0_L2C PREFETCH  REQUESTED:          0  ISSUED:          0  USEFUL:          0  USELESS:          0
cpu0_L2C AVERAGE MISS LATENCY: 21.4225 cycles
LLC TOTAL     ACCESS:    1831492  HIT:    1006021  MISS:     825471
LLC LOAD      ACCESS:     630081  HIT:     433343  MISS:     196738
LLC RFO       ACCESS:        516  HIT:        515  MISS:          1
LLC PREFETCH  ACCESS:          0  HIT:          0  MISS:          0
LLC WRITEBACK ACCESS:    1200871  HIT:     572142  MISS:     628729
LLC TRANSLATION ACCESS:         24  HIT:         21  MISS:          3
LLC PREFETCH  REQUESTED:          0  ISSUED:          0  USEFUL:          0  USELESS:          0
LLC AVERAGE MISS LATENCY: 31.4393 cycles

DRAM Statistics
 CHANNEL 0
 RQ ROW_BUFFER_HIT:      60814  ROW_BUFFER_MISS:     135928
 DBUS AVG_CONGESTED_CYCLE:    3.84812
 WQ ROW_BUFFER_HIT:      38438  ROW_BUFFER_MISS:     231105  FULL:      12009


CPU 0 Branch Prediction Accuracy: 76.962% MPKI: 46.9029 Average ROB Occupancy at Mispredict: 7.42879
Branch type MPKI
BRANCH_DIRECT_JUMP: 3.33333e-05
BRANCH_INDIRECT: 0
BRANCH_CONDITIONAL: 46.9028
BRANCH_DIRECT_CALL: 3.33333e-05
BRANCH_INDIRECT_CALL: 0
BRANCH_RETURN: 3.33333e-05

