
*** ChampSim Multicore Out-of-Order Simulator ***

Warmup Instructions: 30000000
Simulation Instructions: 30000000
Number of CPUs: 1
Off-chip DRAM Size: 4 GiB Channels: 1 Width: 64-bit Data Rate: 3200 MT/s

VirtualMemory physical capacity: 8588881920 num_ppages: 2096895
VirtualMemory page size: 4096 log2_page_size: 12

CPU 0 runs gap_traces/bfs-3.trace.gz
CPU 0 Bimodal branch predictor
Basic BTB sets: 1024 ways: 8 indirect buffer size: 4096 RAS size: 64
Heartbeat CPU 0 instructions: 10000003 cycles: 2500200 heartbeat IPC: 3.99968 cumulative IPC: 3.99968 (Simulation time: 0 hr 0 min 12 sec) 
Heartbeat CPU 0 instructions: 20000003 cycles: 5135373 heartbeat IPC: 3.79482 cumulative IPC: 3.89456 (Simulation time: 0 hr 0 min 27 sec) 
Heartbeat CPU 0 instructions: 30000002 cycles: 7762210 heartbeat IPC: 3.80686 cumulative IPC: 3.86488 (Simulation time: 0 hr 0 min 41 sec) 

Warmup complete CPU 0 instructions: 30000002 cycles: 7762210 (Simulation time: 0 hr 0 min 41 sec) 

Heartbeat CPU 0 instructions: 40000002 cycles: 49104142 heartbeat IPC: 0.241885 cumulative IPC: 0.241885 (Simulation time: 0 hr 1 min 8 sec) 
Heartbeat CPU 0 instructions: 50000000 cycles: 99720743 heartbeat IPC: 0.197564 cumulative IPC: 0.217489 (Simulation time: 0 hr 1 min 39 sec) 
Heartbeat CPU 0 instructions: 60000000 cycles: 158810936 heartbeat IPC: 0.169233 cumulative IPC: 0.198611 (Simulation time: 0 hr 2 min 15 sec) 
Finished CPU 0 instructions: 30000002 cycles: 151048727 cumulative IPC: 0.198611 (Simulation time: 0 hr 2 min 15 sec) 

ChampSim completed all CPUs

Region of Interest Statistics

CPU 0 cumulative IPC: 0.198611 instructions: 30000002 cycles: 151048727
cpu0_DTLB TOTAL     ACCESS:    6723581  HIT:    6681461  MISS:      42120
cpu0_DTLB LOAD      ACCESS:    5965107  HIT:    5923120  MISS:      41987
cpu0_DTLB RFO       ACCESS:     758474  HIT:     758341  MISS:        133
cpu0_DTLB PREFETCH  ACCESS:          0  HIT:          0  MISS:          0
cpu0_DTLB WRITEBACK ACCESS:          0  HIT:          0  MISS:          0
cpu0_DTLB TRANSLATION ACCESS:          0  HIT:          0  MISS:          0
cpu0_DTLB PREFETCH  REQUESTED:          0  ISSUED:          0  USEFUL:          0  USELESS:          0
cpu0_DTLB AVERAGE MISS LATENCY: 65.6991 cycles
cpu0_ITLB TOTAL     ACCESS:    3444641  HIT:    3444641  MISS:          0
cpu0_ITLB LOAD      ACCESS:    3444641  HIT:    3444641  MISS:          0
cpu0_ITLB RFO       ACCESS:          0  HIT:          0  MISS:          0
cpu0_ITLB PREFETCH  ACCESS:          0  HIT:          0  MISS:          0
cpu0_ITLB WRITEBACK ACCESS:          0  HIT:          0  MISS:          0
cpu0_ITLB TRANSLATION ACCESS:          0  HIT:          0  MISS:          0
cpu0_ITLB PREFETCH  REQUESTED:          0  ISSUED:          0  USEFUL:          0  USELESS:          0
cpu0_ITLB AVERAGE MISS LATENCY: -nan cycles
cpu0_L1I TOTAL     ACCESS:         91  HIT:         90  MISS:          1
cpu0_L1I LOAD      ACCESS:         91  HIT:         90  MISS:          1
cpu0_L1I RFO       ACCESS:          0  HIT:          0  MISS:          0
cpu0_L1I PREFETCH  ACCESS:          0  HIT:          0  MISS:          0
cpu0_L1I WRITEBACK ACCESS:          0  HIT:          0  MISS:          0
cpu0_L1I TRANSLATION ACCESS:          0  HIT:          0  MISS:          0
cpu0_L1I PREFETCH  REQUESTED:          0  ISSUED:          0  USEFUL:          0  USELESS:          0
cpu0_L1I AVERAGE MISS LATENCY: 194 cycles
cpu0_STLB TOTAL     ACCESS:      42120  HIT:       3899  MISS:      38221
cpu0_STLB LOAD      ACCESS:      41987  HIT:       3813  MISS:      38174
cpu0_STLB RFO       ACCESS:        133  HIT:         86  MISS:         47
cpu0_STLB PREFETCH  ACCESS:          0  HIT:          0  MISS:          0
cpu0_STLB WRITEBACK ACCESS:          0  HIT:          0  MISS:          0
cpu0_STLB TRANSLATION ACCESS:          0  HIT:          0  MISS:          0
cpu0_STLB PREFETCH  REQUESTED:          0  ISSUED:          0  USEFUL:          0  USELESS:          0
cpu0_STLB AVERAGE MISS LATENCY: 62.483 cycles
cpu0_L1D TOTAL     ACCESS:    7233324  HIT:    6032483  MISS:    1200841
cpu0_L1D LOAD      ACCESS:    5825503  HIT:    4629641  MISS:    1195862
cpu0_L1D RFO       ACCESS:     799478  HIT:     795721  MISS:       3757
cpu0_L1D PREFETCH  ACCESS:          0  HIT:          0  MISS:          0
cpu0_L1D WRITEBACK ACCESS:     570125  HIT:     570125  MISS:          0
cpu0_L1D TRANSLATION ACCESS:      38218  HIT:      36996  MISS:       1222
cpu0_L1D PREFETCH  REQUESTED:          0  ISSUED:          0  USEFUL:          0  USELESS:          0
cpu0_L1D AVERAGE MISS LATENCY: 103.029 cycles
cpu0_L2C TOTAL     ACCESS:    2420134  HIT:     591318  MISS:    1828816
cpu0_L2C LOAD      ACCESS:    1195849  HIT:     566798  MISS:     629051
cpu0_L2C RFO       ACCESS:       3757  HIT:       3211  MISS:        546
cpu0_L2C PREFETCH  ACCESS:          0  HIT:          0  MISS:          0
cpu0_L2C WRITEBACK ACCESS:    1219307  HIT:      20112  MISS:    1199195
cpu0_L2C TRANSLATION ACCESS:       1221  HIT:       1197  MISS:         24
cpu0_L2C PREFETCH  REQUESTED:          0  ISSUED:          0  USEFUL:          0  USELESS:          0
cpu0_L2C AVERAGE MISS LATENCY: 60.3702 cycles
LLC TOTAL     ACCESS:    1829371  HIT:     475099  MISS:    1354272
LLC LOAD      ACCESS:     629046  HIT:      18301  MISS:     610745
LLC RFO       ACCESS:        546  HIT:        167  MISS:        379
LLC PREFETCH  ACCESS:          0  HIT:          0  MISS:          0
LLC WRITEBACK ACCESS:    1199755  HIT:     456627  MISS:     743128
LLC TRANSLATION ACCESS:         24  HIT:          4  MISS:         20
LLC PREFETCH  REQUESTED:          0  ISSUED:          0  USEFUL:          0  USELESS:          0
LLC AVERAGE MISS LATENCY: 71.7605 cycles

DRAM Statistics
 CHANNEL 0
 RQ ROW_BUFFER_HIT:      48502  ROW_BUFFER_MISS:     562412
 DBUS AVG_CONGESTED_CYCLE:    3.94409
 WQ ROW_BUFFER_HIT:      84630  ROW_BUFFER_MISS:     146148  FULL:       3826


CPU 0 Branch Prediction Accuracy: 76.962% MPKI: 46.9029 Average ROB Occupancy at Mispredict: 7.46636
Branch type MPKI
BRANCH_DIRECT_JUMP: 3.33333e-05
BRANCH_INDIRECT: 0
BRANCH_CONDITIONAL: 46.9028
BRANCH_DIRECT_CALL: 3.33333e-05
BRANCH_INDIRECT_CALL: 0
BRANCH_RETURN: 3.33333e-05

