
*** ChampSim Multicore Out-of-Order Simulator ***

Warmup Instructions: 30000000
Simulation Instructions: 30000000
Number of CPUs: 1
Off-chip DRAM Size: 4 GiB Channels: 1 Width: 64-bit Data Rate: 3200 MT/s

VirtualMemory physical capacity: 8588881920 num_ppages: 2096895
VirtualMemory page size: 4096 log2_page_size: 12

CPU 0 runs gap_traces/bfs-3.trace.gz
CPU 0 Bimodal branch predictor
Basic BTB sets: 1024 ways: 8 indirect buffer size: 4096 RAS size: 64
Heartbeat CPU 0 instructions: 10000003 cycles: 2500200 heartbeat IPC: 3.99968 cumulative IPC: 3.99968 (Simulation time: 0 hr 0 min 12 sec) 
Heartbeat CPU 0 instructions: 20000003 cycles: 5135371 heartbeat IPC: 3.79482 cumulative IPC: 3.89456 (Simulation time: 0 hr 0 min 27 sec) 
Heartbeat CPU 0 instructions: 30000002 cycles: 7762208 heartbeat IPC: 3.80686 cumulative IPC: 3.86488 (Simulation time: 0 hr 0 min 42 sec) 

Warmup complete CPU 0 instructions: 30000002 cycles: 7762208 (Simulation time: 0 hr 0 min 42 sec) 

Heartbeat CPU 0 instructions: 40000002 cycles: 49800532 heartbeat IPC: 0.237878 cumulative IPC: 0.237878 (Simulation time: 0 hr 1 min 9 sec) 
Heartbeat CPU 0 instructions: 50000000 cycles: 98160924 heartbeat IPC: 0.206781 cumulative IPC: 0.221242 (Simulation time: 0 hr 1 min 41 sec) 
Heartbeat CPU 0 instructions: 60000000 cycles: 156550726 heartbeat IPC: 0.171263 cumulative IPC: 0.201628 (Simulation time: 0 hr 2 min 18 sec) 
Finished CPU 0 instructions: 30000002 cycles: 148788519 cumulative IPC: 0.201628 (Simulation time: 0 hr 2 min 18 sec) 

ChampSim completed all CPUs

Region of Interest Statistics

CPU 0 cumulative IPC: 0.201628 instructions: 30000002 cycles: 148788519
cpu0_DTLB TOTAL     ACCESS:    6723789  HIT:    6681669  MISS:      42120
cpu0_DTLB LOAD      ACCESS:    5965150  HIT:    5923163  MISS:      41987
cpu0_DTLB RFO       ACCESS:     758639  HIT:     758506  MISS:        133
cpu0_DTLB PREFETCH  ACCESS:          0  HIT:          0  MISS:          0
cpu0_DTLB WRITEBACK ACCESS:          0  HIT:          0  MISS:          0
cpu0_DTLB TRANSLATION ACCESS:          0  HIT:          0  MISS:          0
cpu0_DTLB PREFETCH  REQUESTED:          0  ISSUED:          0  USEFUL:          0  USELESS:          0
cpu0_DTLB AVERAGE MISS LATENCY: 65.6511 cycles
cpu0_ITLB TOTAL     ACCESS:    3444641  HIT:    3444641  MISS:          0
cpu0_ITLB LOAD      ACCESS:    3444641  HIT:    3444641  MISS:          0
cpu0_ITLB RFO       ACCESS:          0  HIT:          0  MISS:          0
cpu0_ITLB PREFETCH  ACCESS:          0  HIT:          0  MISS:          0
cpu0_ITLB WRITEBACK ACCESS:          0  HIT:          0  MISS:          0
cpu0_ITLB TRANSLATION ACCESS:          0  HIT:          0  MISS:          0
cpu0_ITLB PREFETCH  REQUESTED:          0  ISSUED:          0  USEFUL:          0  USELESS:          0
cpu0_ITLB AVERAGE MISS LATENCY: -nan cycles
cpu0_L1I TOTAL     ACCESS:         91  HIT:         90  MISS:          1
cpu0_L1I LOAD      ACCESS:         91  HIT:         90  MISS:          1
cpu0_L1I RFO       ACCESS:          0  HIT:          0  MISS:          0
cpu0_L1I PREFETCH  ACCESS:          0  HIT:          0  MISS:          0
cpu0_L1I WRITEBACK ACCESS:          0  HIT:          0  MISS:          0
cpu0_L1I TRANSLATION ACCESS:          0  HIT:          0  MISS:          0
cpu0_L1I PREFETCH  REQUESTED:          0  ISSUED:          0  USEFUL:          0  USELESS:          0
cpu0_L1I AVERAGE MISS LATENCY: 297 cycles
cpu0_STLB TOTAL     ACCESS:      42120  HIT:       3899  MISS:      38221
cpu0_STLB LOAD      ACCESS:      41987  HIT:       3813  MISS:      38174
cpu0_STLB RFO       ACCESS:        133  HIT:         86  MISS:         47
cpu0_STLB PREFETCH  ACCESS:          0  HIT:          0  MISS:          0
cpu0_STLB WRITEBACK ACCESS:          0  HIT:          0  MISS:          0
cpu0_STLB TRANSLATION ACCESS:          0  HIT:          0  MISS:          0
cpu0_STLB PREFETCH  REQUESTED:          0  ISSUED:          0  USEFUL:          0  USELESS:          0
cpu0_STLB AVERAGE MISS LATENCY: 62.43 cycles
cpu0_L1D TOTAL     ACCESS:    7232480  HIT:    6031635  MISS:    1200845
cpu0_L1D LOAD      ACCESS:    5825496  HIT:    4629631  MISS:    1195865
cpu0_L1D RFO       ACCESS:     799475  HIT:     795717  MISS:       3758
cpu0_L1D PREFETCH  ACCESS:          0  HIT:          0  MISS:          0
cpu0_L1D WRITEBACK ACCESS:     569291  HIT:     569291  MISS:          0
cpu0_L1D TRANSLATION ACCESS:      38218  HIT:      36996  MISS:       1222
cpu0_L1D PREFETCH  REQUESTED:          0  ISSUED:          0  USEFUL:          0  USELESS:          0
cpu0_L1D AVERAGE MISS LATENCY: 100.994 cycles
cpu0_L2C TOTAL     ACCESS:    2441128  HIT:     612540  MISS:    1828588
cpu0_L2C LOAD      ACCESS:    1195851  HIT:     566592  MISS:     629259
cpu0_L2C RFO       ACCESS:       3758  HIT:       3212  MISS:        546
cpu0_L2C PREFETCH  ACCESS:          0  HIT:          0  MISS:          0
cpu0_L2C WRITEBACK ACCESS:    1240298  HIT:      41539  MISS:    1198759
cpu0_L2C TRANSLATION ACCESS:       1221  HIT:       1197  MISS:         24
cpu0_L2C PREFETCH  REQUESTED:          0  ISSUED:          0  USEFUL:          0  USELESS:          0
cpu0_L2C AVERAGE MISS LATENCY: 59.0318 cycles
LLC TOTAL     ACCESS:    1829145  HIT:     436639  MISS:    1392506
LLC LOAD      ACCESS:     629255  HIT:      39284  MISS:     589971
LLC RFO       ACCESS:        546  HIT:        169  MISS:        377
LLC PREFETCH  ACCESS:          0  HIT:          0  MISS:          0
LLC WRITEBACK ACCESS:    1199320  HIT:     397173  MISS:     802147
LLC TRANSLATION ACCESS:         24  HIT:         13  MISS:         11
LLC PREFETCH  REQUESTED:          0  ISSUED:          0  USEFUL:          0  USELESS:          0
LLC AVERAGE MISS LATENCY: 68.0189 cycles

DRAM Statistics
 CHANNEL 0
 RQ ROW_BUFFER_HIT:      39338  ROW_BUFFER_MISS:     550865
 DBUS AVG_CONGESTED_CYCLE:    3.92989
 WQ ROW_BUFFER_HIT:     142524  ROW_BUFFER_MISS:     166345  FULL:      10047


CPU 0 Branch Prediction Accuracy: 76.962% MPKI: 46.9029 Average ROB Occupancy at Mispredict: 7.50973
Branch type MPKI
BRANCH_DIRECT_JUMP: 3.33333e-05
BRANCH_INDIRECT: 0
BRANCH_CONDITIONAL: 46.9028
BRANCH_DIRECT_CALL: 3.33333e-05
BRANCH_INDIRECT_CALL: 0
BRANCH_RETURN: 3.33333e-05

