
*** ChampSim Multicore Out-of-Order Simulator ***

Warmup Instructions: 30000000
Simulation Instructions: 30000000
Number of CPUs: 1
Off-chip DRAM Size: 4 GiB Channels: 1 Width: 64-bit Data Rate: 3200 MT/s

VirtualMemory physical capacity: 8588881920 num_ppages: 2096895
VirtualMemory page size: 4096 log2_page_size: 12

CPU 0 runs gap_traces/bfs-3.trace.gz
CPU 0 Bimodal branch predictor
Basic BTB sets: 1024 ways: 8 indirect buffer size: 4096 RAS size: 64
Heartbeat CPU 0 instructions: 10000003 cycles: 2500200 heartbeat IPC: 3.99968 cumulative IPC: 3.99968 (Simulation time: 0 hr 0 min 12 sec) 
Heartbeat CPU 0 instructions: 20000000 cycles: 5135372 heartbeat IPC: 3.79482 cumulative IPC: 3.89456 (Simulation time: 0 hr 0 min 27 sec) 
Heartbeat CPU 0 instructions: 30000002 cycles: 7762209 heartbeat IPC: 3.80686 cumulative IPC: 3.86488 (Simulation time: 0 hr 0 min 42 sec) 

Warmup complete CPU 0 instructions: 30000002 cycles: 7762209 (Simulation time: 0 hr 0 min 42 sec) 

Heartbeat CPU 0 instructions: 40000002 cycles: 40248595 heartbeat IPC: 0.307821 cumulative IPC: 0.307821 (Simulation time: 0 hr 1 min 4 sec) 
Heartbeat CPU 0 instructions: 50000000 cycles: 70181614 heartbeat IPC: 0.334079 cumulative IPC: 0.320413 (Simulation time: 0 hr 1 min 26 sec) 
Heartbeat CPU 0 instructions: 60000000 cycles: 98186511 heartbeat IPC: 0.35708 cumulative IPC: 0.331769 (Simulation time: 0 hr 1 min 47 sec) 
Finished CPU 0 instructions: 30000002 cycles: 90424303 cumulative IPC: 0.331769 (Simulation time: 0 hr 1 min 47 sec) 

ChampSim completed all CPUs

Region of Interest Statistics

CPU 0 cumulative IPC: 0.331769 instructions: 30000002 cycles: 90424303
cpu0_DTLB TOTAL     ACCESS:    6722867  HIT:    6680746  MISS:      42121
cpu0_DTLB LOAD      ACCESS:    5965093  HIT:    5923105  MISS:      41988
cpu0_DTLB RFO       ACCESS:     757774  HIT:     757641  MISS:        133
cpu0_DTLB PREFETCH  ACCESS:          0  HIT:          0  MISS:          0
cpu0_DTLB WRITEBACK ACCESS:          0  HIT:          0  MISS:          0
cpu0_DTLB TRANSLATION ACCESS:          0  HIT:          0  MISS:          0
cpu0_DTLB PREFETCH  REQUESTED:          0  ISSUED:          0  USEFUL:          0  USELESS:          0
cpu0_DTLB AVERAGE MISS LATENCY: 65.6172 cycles
cpu0_ITLB TOTAL     ACCESS:    3444641  HIT:    3444641  MISS:          0
cpu0_ITLB LOAD      ACCESS:    3444641  HIT:    3444641  MISS:          0
cpu0_ITLB RFO       ACCESS:          0  HIT:          0  MISS:          0
cpu0_ITLB PREFETCH  ACCESS:          0  HIT:          0  MISS:          0
cpu0_ITLB WRITEBACK ACCESS:          0  HIT:          0  MISS:          0
cpu0_ITLB TRANSLATION ACCESS:          0  HIT:          0  MISS:          0
cpu0_ITLB PREFETCH  REQUESTED:          0  ISSUED:          0  USEFUL:          0  USELESS:          0
cpu0_ITLB AVERAGE MISS LATENCY: -nan cycles
cpu0_L1I TOTAL     ACCESS:         91  HIT:         90  MISS:          1
cpu0_L1I LOAD      ACCESS:         91  HIT:         90  MISS:          1
cpu0_L1I RFO       ACCESS:          0  HIT:          0  MISS:          0
cpu0_L1I PREFETCH  ACCESS:          0  HIT:          0  MISS:          0
cpu0_L1I WRITEBACK ACCESS:          0  HIT:          0  MISS:          0
cpu0_L1I TRANSLATION ACCESS:          0  HIT:          0  MISS:          0
cpu0_L1I PREFETCH  REQUESTED:          0  ISSUED:          0  USEFUL:          0  USELESS:          0
cpu0_L1I AVERAGE MISS LATENCY: 194 cycles
cpu0_STLB TOTAL     ACCESS:      42121  HIT:       3900  MISS:      38221
cpu0_STLB LOAD      ACCESS:      41988  HIT:       3814  MISS:      38174
cpu0_STLB RFO       ACCESS:        133  HIT:         86  MISS:         47
cpu0_STLB PREFETCH  ACCESS:          0  HIT:          0  MISS:          0
cpu0_STLB WRITEBACK ACCESS:          0  HIT:          0  MISS:          0
cpu0_STLB TRANSLATION ACCESS:          0  HIT:          0  MISS:          0
cpu0_STLB PREFETCH  REQUESTED:          0  ISSUED:          0  USEFUL:          0  USELESS:          0
cpu0_STLB AVERAGE MISS LATENCY: 62.3941 cycles
cpu0_L1D TOTAL     ACCESS:    7233371  HIT:    6032527  MISS:    1200844
cpu0_L1D LOAD      ACCESS:    5826121  HIT:    4630257  MISS:    1195864
cpu0_L1D RFO       ACCESS:     799475  HIT:     795717  MISS:       3758
cpu0_L1D PREFETCH  ACCESS:          0  HIT:          0  MISS:          0
cpu0_L1D WRITEBACK ACCESS:     569557  HIT:     569557  MISS:          0
cpu0_L1D TRANSLATION ACCESS:      38218  HIT:      36996  MISS:       1222
cpu0_L1D PREFETCH  REQUESTED:          0  ISSUED:          0  USEFUL:          0  USELESS:          0
cpu0_L1D AVERAGE MISS LATENCY: 43.6093 cycles
cpu0_L2C TOTAL     ACCESS:    2835575  HIT:    1004767  MISS:    1830808
cpu0_L2C LOAD      ACCESS:    1195848  HIT:     565763  MISS:     630085
cpu0_L2C RFO       ACCESS:       3758  HIT:       3239  MISS:        519
cpu0_L2C PREFETCH  ACCESS:          0  HIT:          0  MISS:          0
cpu0_L2C WRITEBACK ACCESS:    1634748  HIT:     434568  MISS:    1200180
cpu0_L2C TRANSLATION ACCESS:       1221  HIT:       1197  MISS:         24
cpu0_L2C PREFETCH  REQUESTED:          0  ISSUED:          0  USEFUL:          0  USELESS:          0
cpu0_L2C AVERAGE MISS LATENCY: 21.2354 cycles
LLC TOTAL     ACCESS:    1831251  HIT:    1006107  MISS:     825144
LLC LOAD      ACCESS:     630081  HIT:     433595  MISS:     196486
LLC RFO       ACCESS:        519  HIT:        516  MISS:          3
LLC PREFETCH  ACCESS:          0  HIT:          0  MISS:          0
LLC WRITEBACK ACCESS:    1200627  HIT:     571975  MISS:     628652
LLC TRANSLATION ACCESS:         24  HIT:         21  MISS:          3
LLC PREFETCH  REQUESTED:          0  ISSUED:          0  USEFUL:          0  USELESS:          0
LLC AVERAGE MISS LATENCY: 31.019 cycles

DRAM Statistics
 CHANNEL 0
 RQ ROW_BUFFER_HIT:      63505  ROW_BUFFER_MISS:     132987
 DBUS AVG_CONGESTED_CYCLE:    3.88889
 WQ ROW_BUFFER_HIT:      43600  ROW_BUFFER_MISS:     238203  FULL:      15314


CPU 0 Branch Prediction Accuracy: 76.962% MPKI: 46.9029 Average ROB Occupancy at Mispredict: 7.42919
Branch type MPKI
BRANCH_DIRECT_JUMP: 3.33333e-05
BRANCH_INDIRECT: 0
BRANCH_CONDITIONAL: 46.9028
BRANCH_DIRECT_CALL: 3.33333e-05
BRANCH_INDIRECT_CALL: 0
BRANCH_RETURN: 3.33333e-05

