
*** ChampSim Multicore Out-of-Order Simulator ***

Warmup Instructions: 30000000
Simulation Instructions: 30000000
Number of CPUs: 1
Off-chip DRAM Size: 4 GiB Channels: 1 Width: 64-bit Data Rate: 3200 MT/s

VirtualMemory physical capacity: 8588881920 num_ppages: 2096895
VirtualMemory page size: 4096 log2_page_size: 12

CPU 0 runs gap_traces/cc-6.trace.gz
CPU 0 Bimodal branch predictor
Basic BTB sets: 1024 ways: 8 indirect buffer size: 4096 RAS size: 64
Heartbeat CPU 0 instructions: 10000004 cycles: 2549819 heartbeat IPC: 3.92185 cumulative IPC: 3.92185 (Simulation time: 0 hr 0 min 13 sec) 
Heartbeat CPU 0 instructions: 20000002 cycles: 5242331 heartbeat IPC: 3.714 cumulative IPC: 3.8151 (Simulation time: 0 hr 0 min 28 sec) 
Heartbeat CPU 0 instructions: 30000004 cycles: 8005857 heartbeat IPC: 3.61857 cumulative IPC: 3.74726 (Simulation time: 0 hr 0 min 43 sec) 

Warmup complete CPU 0 instructions: 30000004 cycles: 8005857 (Simulation time: 0 hr 0 min 43 sec) 

Heartbeat CPU 0 instructions: 40000000 cycles: 63548162 heartbeat IPC: 0.180043 cumulative IPC: 0.180043 (Simulation time: 0 hr 1 min 26 sec) 
Heartbeat CPU 0 instructions: 50000000 cycles: 118685693 heartbeat IPC: 0.181365 cumulative IPC: 0.180701 (Simulation time: 0 hr 2 min 10 sec) 
Heartbeat CPU 0 instructions: 60000003 cycles: 173976206 heartbeat IPC: 0.180863 cumulative IPC: 0.180755 (Simulation time: 0 hr 2 min 55 sec) 
Finished CPU 0 instructions: 30000004 cycles: 165970350 cumulative IPC: 0.180755 (Simulation time: 0 hr 2 min 55 sec) 

ChampSim completed all CPUs

Region of Interest Statistics

CPU 0 cumulative IPC: 0.180755 instructions: 30000004 cycles: 165970350
cpu0_DTLB TOTAL     ACCESS:    7962627  HIT:    6384874  MISS:    1577753
cpu0_DTLB LOAD      ACCESS:    7856046  HIT:    6278293  MISS:    1577753
cpu0_DTLB RFO       ACCESS:     106581  HIT:     106581  MISS:          0
cpu0_DTLB PREFETCH  ACCESS:          0  HIT:          0  MISS:          0
cpu0_DTLB WRITEBACK ACCESS:          0  HIT:          0  MISS:          0
cpu0_DTLB TRANSLATION ACCESS:          0  HIT:          0  MISS:          0
cpu0_DTLB PREFETCH  REQUESTED:          0  ISSUED:          0  USEFUL:          0  USELESS:          0
cpu0_DTLB AVERAGE MISS LATENCY: 9.74301 cycles
cpu0_ITLB TOTAL     ACCESS:    3225602  HIT:    3225602  MISS:          0
cpu0_ITLB LOAD      ACCESS:    3225602  HIT:    3225602  MISS:          0
cpu0_ITLB RFO       ACCESS:          0  HIT:          0  MISS:          0
cpu0_ITLB PREFETCH  ACCESS:          0  HIT:          0  MISS:          0
cpu0_ITLB WRITEBACK ACCESS:          0  HIT:          0  MISS:          0
cpu0_ITLB TRANSLATION ACCESS:          0  HIT:          0  MISS:          0
cpu0_ITLB PREFETCH  REQUESTED:          0  ISSUED:          0  USEFUL:          0  USELESS:          0
cpu0_ITLB AVERAGE MISS LATENCY: -nan cycles
cpu0_STLB TOTAL     ACCESS:    1577753  HIT:    1575415  MISS:       2338
cpu0_STLB LOAD      ACCESS:    1577753  HIT:    1575415  MISS:       2338
cpu0_STLB RFO       ACCESS:          0  HIT:          0  MISS:          0
cpu0_STLB PREFETCH  ACCESS:          0  HIT:          0  MISS:          0
cpu0_STLB WRITEBACK ACCESS:          0  HIT:          0  MISS:          0
cpu0_STLB TRANSLATION ACCESS:          0  HIT:          0  MISS:          0
cpu0_STLB PREFETCH  REQUESTED:          0  ISSUED:          0  USEFUL:          0  USELESS:          0
cpu0_STLB AVERAGE MISS LATENCY: 219.196 cycles
cpu0_L1D TOTAL     ACCESS:    7297217  HIT:    4910188  MISS:    2387029
cpu0_L1D LOAD      ACCESS:    6434307  HIT:    4049454  MISS:    2384853
cpu0_L1D RFO       ACCESS:     106932  HIT:     106932  MISS:          0
cpu0_L1D PREFETCH  ACCESS:          0  HIT:          0  MISS:          0
cpu0_L1D WRITEBACK ACCESS:     753640  HIT:     753640  MISS:          0
cpu0_L1D TRANSLATION ACCESS:       2338  HIT:        162  MISS:       2176
cpu0_L1D PREFETCH  REQUESTED:          0  ISSUED:          0  USEFUL:          0  USELESS:          0
cpu0_L1D AVERAGE MISS LATENCY: 98.4235 cycles
cpu0_L2C TOTAL     ACCESS:    5783913  HIT:    1763760  MISS:    4020153
cpu0_L2C LOAD      ACCESS:    2384787  HIT:     751571  MISS:    1633216
cpu0_L2C RFO       ACCESS:          0  HIT:          0  MISS:          0
cpu0_L2C PREFETCH  ACCESS:          0  HIT:          0  MISS:          0
cpu0_L2C WRITEBACK ACCESS:    3396951  HIT:    1010120  MISS:    2386831
cpu0_L2C TRANSLATION ACCESS:       2175  HIT:       2069  MISS:        106
cpu0_L2C PREFETCH  REQUESTED:          0  ISSUED:          0  USEFUL:          0  USELESS:          0
cpu0_L2C AVERAGE MISS LATENCY: 51.777 cycles
LLC TOTAL     ACCESS:    4020185  HIT:    1757149  MISS:    2263036
LLC LOAD      ACCESS:    1633196  HIT:    1009814  MISS:     623382
LLC RFO       ACCESS:          0  HIT:          0  MISS:          0
LLC PREFETCH  ACCESS:          0  HIT:          0  MISS:          0
LLC WRITEBACK ACCESS:    2386883  HIT:     747229  MISS:    1639654
LLC TRANSLATION ACCESS:        106  HIT:        106  MISS:          0
LLC PREFETCH  REQUESTED:          0  ISSUED:          0  USEFUL:          0  USELESS:          0
LLC AVERAGE MISS LATENCY: 76.8225 cycles

DRAM Statistics
 CHANNEL 0
 RQ ROW_BUFFER_HIT:       7997  ROW_BUFFER_MISS:     615050
 DBUS AVG_CONGESTED_CYCLE:    3.99221
 WQ ROW_BUFFER_HIT:       9665  ROW_BUFFER_MISS:    1097665  FULL:      26051


CPU 0 Branch Prediction Accuracy: 84.6764% MPKI: 31.4387 Average ROB Occupancy at Mispredict: 14.6377
Branch type MPKI
BRANCH_DIRECT_JUMP: 0
BRANCH_INDIRECT: 0
BRANCH_CONDITIONAL: 31.4387
BRANCH_DIRECT_CALL: 0
BRANCH_INDIRECT_CALL: 0
BRANCH_RETURN: 0

