
*** ChampSim Multicore Out-of-Order Simulator ***

Warmup Instructions: 30000000
Simulation Instructions: 30000000
Number of CPUs: 1
Off-chip DRAM Size: 4 GiB Channels: 1 Width: 64-bit Data Rate: 3200 MT/s

VirtualMemory physical capacity: 8588881920 num_ppages: 2096895
VirtualMemory page size: 4096 log2_page_size: 12

CPU 0 runs gap_traces/cc-6.trace.gz
CPU 0 Bimodal branch predictor
Basic BTB sets: 1024 ways: 8 indirect buffer size: 4096 RAS size: 64
Heartbeat CPU 0 instructions: 10000004 cycles: 2549846 heartbeat IPC: 3.92181 cumulative IPC: 3.92181 (Simulation time: 0 hr 0 min 13 sec) 
Heartbeat CPU 0 instructions: 20000002 cycles: 5242360 heartbeat IPC: 3.714 cumulative IPC: 3.81508 (Simulation time: 0 hr 0 min 29 sec) 
Heartbeat CPU 0 instructions: 30000004 cycles: 8005882 heartbeat IPC: 3.61857 cumulative IPC: 3.74725 (Simulation time: 0 hr 0 min 45 sec) 

Warmup complete CPU 0 instructions: 30000004 cycles: 8005882 (Simulation time: 0 hr 0 min 45 sec) 

Heartbeat CPU 0 instructions: 40000000 cycles: 92246923 heartbeat IPC: 0.118707 cumulative IPC: 0.118707 (Simulation time: 0 hr 1 min 47 sec) 
Heartbeat CPU 0 instructions: 50000000 cycles: 176011852 heartbeat IPC: 0.119382 cumulative IPC: 0.119043 (Simulation time: 0 hr 2 min 50 sec) 
Heartbeat CPU 0 instructions: 60000003 cycles: 258879097 heartbeat IPC: 0.120675 cumulative IPC: 0.119582 (Simulation time: 0 hr 3 min 53 sec) 
Finished CPU 0 instructions: 30000004 cycles: 250873216 cumulative IPC: 0.119582 (Simulation time: 0 hr 3 min 53 sec) 

ChampSim completed all CPUs

Region of Interest Statistics

CPU 0 cumulative IPC: 0.119582 instructions: 30000004 cycles: 250873216
cpu0_DTLB TOTAL     ACCESS:    8063025  HIT:    6485245  MISS:    1577780
cpu0_DTLB LOAD      ACCESS:    7956515  HIT:    6378735  MISS:    1577780
cpu0_DTLB RFO       ACCESS:     106510  HIT:     106510  MISS:          0
cpu0_DTLB PREFETCH  ACCESS:          0  HIT:          0  MISS:          0
cpu0_DTLB WRITEBACK ACCESS:          0  HIT:          0  MISS:          0
cpu0_DTLB TRANSLATION ACCESS:          0  HIT:          0  MISS:          0
cpu0_DTLB PREFETCH  REQUESTED:          0  ISSUED:          0  USEFUL:          0  USELESS:          0
cpu0_DTLB AVERAGE MISS LATENCY: 9.74417 cycles
cpu0_ITLB TOTAL     ACCESS:    3205577  HIT:    3205577  MISS:          0
cpu0_ITLB LOAD      ACCESS:    3205577  HIT:    3205577  MISS:          0
cpu0_ITLB RFO       ACCESS:          0  HIT:          0  MISS:          0
cpu0_ITLB PREFETCH  ACCESS:          0  HIT:          0  MISS:          0
cpu0_ITLB WRITEBACK ACCESS:          0  HIT:          0  MISS:          0
cpu0_ITLB TRANSLATION ACCESS:          0  HIT:          0  MISS:          0
cpu0_ITLB PREFETCH  REQUESTED:          0  ISSUED:          0  USEFUL:          0  USELESS:          0
cpu0_ITLB AVERAGE MISS LATENCY: -nan cycles
cpu0_STLB TOTAL     ACCESS:    1577780  HIT:    1575442  MISS:       2338
cpu0_STLB LOAD      ACCESS:    1577780  HIT:    1575442  MISS:       2338
cpu0_STLB RFO       ACCESS:          0  HIT:          0  MISS:          0
cpu0_STLB PREFETCH  ACCESS:          0  HIT:          0  MISS:          0
cpu0_STLB WRITEBACK ACCESS:          0  HIT:          0  MISS:          0
cpu0_STLB TRANSLATION ACCESS:          0  HIT:          0  MISS:          0
cpu0_STLB PREFETCH  REQUESTED:          0  ISSUED:          0  USEFUL:          0  USELESS:          0
cpu0_STLB AVERAGE MISS LATENCY: 223.183 cycles
cpu0_L1D TOTAL     ACCESS:    7489408  HIT:    5102392  MISS:    2387016
cpu0_L1D LOAD      ACCESS:    6605195  HIT:    4220356  MISS:    2384839
cpu0_L1D RFO       ACCESS:     106932  HIT:     106932  MISS:          0
cpu0_L1D PREFETCH  ACCESS:          0  HIT:          0  MISS:          0
cpu0_L1D WRITEBACK ACCESS:     774943  HIT:     774943  MISS:          0
cpu0_L1D TRANSLATION ACCESS:       2338  HIT:        161  MISS:       2177
cpu0_L1D PREFETCH  REQUESTED:          0  ISSUED:          0  USEFUL:          0  USELESS:          0
cpu0_L1D AVERAGE MISS LATENCY: 217.977 cycles
cpu0_L2C TOTAL     ACCESS:    4837925  HIT:     839050  MISS:    3998875
cpu0_L2C LOAD      ACCESS:    2384786  HIT:     772870  MISS:    1611916
cpu0_L2C RFO       ACCESS:          0  HIT:          0  MISS:          0
cpu0_L2C PREFETCH  ACCESS:          0  HIT:          0  MISS:          0
cpu0_L2C WRITEBACK ACCESS:    2450962  HIT:      64107  MISS:    2386855
cpu0_L2C TRANSLATION ACCESS:       2177  HIT:       2073  MISS:        104
cpu0_L2C PREFETCH  REQUESTED:          0  ISSUED:          0  USEFUL:          0  USELESS:          0
cpu0_L2C AVERAGE MISS LATENCY: 123.421 cycles
LLC TOTAL     ACCESS:    3998947  HIT:     154055  MISS:    3844892
LLC LOAD      ACCESS:    1611889  HIT:      63891  MISS:    1547998
LLC RFO       ACCESS:          0  HIT:          0  MISS:          0
LLC PREFETCH  ACCESS:          0  HIT:          0  MISS:          0
LLC WRITEBACK ACCESS:    2386954  HIT:      90109  MISS:    2296845
LLC TRANSLATION ACCESS:        104  HIT:         55  MISS:         49
LLC PREFETCH  REQUESTED:          0  ISSUED:          0  USEFUL:          0  USELESS:          0
LLC AVERAGE MISS LATENCY: 119.56 cycles

DRAM Statistics
 CHANNEL 0
 RQ ROW_BUFFER_HIT:      48334  ROW_BUFFER_MISS:    1497140
 DBUS AVG_CONGESTED_CYCLE:    3.97948
 WQ ROW_BUFFER_HIT:       2200  ROW_BUFFER_MISS:     829401  FULL:          0


CPU 0 Branch Prediction Accuracy: 84.6764% MPKI: 31.4387 Average ROB Occupancy at Mispredict: 14.6466
Branch type MPKI
BRANCH_DIRECT_JUMP: 0
BRANCH_INDIRECT: 0
BRANCH_CONDITIONAL: 31.4387
BRANCH_DIRECT_CALL: 0
BRANCH_INDIRECT_CALL: 0
BRANCH_RETURN: 0

