
*** ChampSim Multicore Out-of-Order Simulator ***

Warmup Instructions: 30000000
Simulation Instructions: 30000000
Number of CPUs: 1
Off-chip DRAM Size: 4 GiB Channels: 1 Width: 64-bit Data Rate: 3200 MT/s

VirtualMemory physical capacity: 8588881920 num_ppages: 2096895
VirtualMemory page size: 4096 log2_page_size: 12

CPU 0 runs gap_traces/cc-6.trace.gz
CPU 0 Bimodal branch predictor
Basic BTB sets: 1024 ways: 8 indirect buffer size: 4096 RAS size: 64
Heartbeat CPU 0 instructions: 10000004 cycles: 2549830 heartbeat IPC: 3.92183 cumulative IPC: 3.92183 (Simulation time: 0 hr 0 min 13 sec) 
Heartbeat CPU 0 instructions: 20000002 cycles: 5242345 heartbeat IPC: 3.714 cumulative IPC: 3.81509 (Simulation time: 0 hr 0 min 29 sec) 
Heartbeat CPU 0 instructions: 30000004 cycles: 8005868 heartbeat IPC: 3.61857 cumulative IPC: 3.74725 (Simulation time: 0 hr 0 min 45 sec) 

Warmup complete CPU 0 instructions: 30000004 cycles: 8005868 (Simulation time: 0 hr 0 min 45 sec) 

Heartbeat CPU 0 instructions: 40000000 cycles: 66062492 heartbeat IPC: 0.172246 cumulative IPC: 0.172246 (Simulation time: 0 hr 1 min 30 sec) 
Heartbeat CPU 0 instructions: 50000000 cycles: 123706083 heartbeat IPC: 0.17348 cumulative IPC: 0.17286 (Simulation time: 0 hr 2 min 17 sec) 
Heartbeat CPU 0 instructions: 60000003 cycles: 181467856 heartbeat IPC: 0.173125 cumulative IPC: 0.172949 (Simulation time: 0 hr 3 min 6 sec) 
Finished CPU 0 instructions: 30000004 cycles: 173461989 cumulative IPC: 0.172949 (Simulation time: 0 hr 3 min 6 sec) 

ChampSim completed all CPUs

Region of Interest Statistics

CPU 0 cumulative IPC: 0.172949 instructions: 30000004 cycles: 173461989
cpu0_DTLB TOTAL     ACCESS:    7972788  HIT:    6395041  MISS:    1577747
cpu0_DTLB LOAD      ACCESS:    7866208  HIT:    6288461  MISS:    1577747
cpu0_DTLB RFO       ACCESS:     106580  HIT:     106580  MISS:          0
cpu0_DTLB PREFETCH  ACCESS:          0  HIT:          0  MISS:          0
cpu0_DTLB WRITEBACK ACCESS:          0  HIT:          0  MISS:          0
cpu0_DTLB TRANSLATION ACCESS:          0  HIT:          0  MISS:          0
cpu0_DTLB PREFETCH  REQUESTED:          0  ISSUED:          0  USEFUL:          0  USELESS:          0
cpu0_DTLB AVERAGE MISS LATENCY: 9.74457 cycles
cpu0_ITLB TOTAL     ACCESS:    3222835  HIT:    3222835  MISS:          0
cpu0_ITLB LOAD      ACCESS:    3222835  HIT:    3222835  MISS:          0
cpu0_ITLB RFO       ACCESS:          0  HIT:          0  MISS:          0
cpu0_ITLB PREFETCH  ACCESS:          0  HIT:          0  MISS:          0
cpu0_ITLB WRITEBACK ACCESS:          0  HIT:          0  MISS:          0
cpu0_ITLB TRANSLATION ACCESS:          0  HIT:          0  MISS:          0
cpu0_ITLB PREFETCH  REQUESTED:          0  ISSUED:          0  USEFUL:          0  USELESS:          0
cpu0_ITLB AVERAGE MISS LATENCY: -nan cycles
cpu0_STLB TOTAL     ACCESS:    1577747  HIT:    1575409  MISS:       2338
cpu0_STLB LOAD      ACCESS:    1577747  HIT:    1575409  MISS:       2338
cpu0_STLB RFO       ACCESS:          0  HIT:          0  MISS:          0
cpu0_STLB PREFETCH  ACCESS:          0  HIT:          0  MISS:          0
cpu0_STLB WRITEBACK ACCESS:          0  HIT:          0  MISS:          0
cpu0_STLB TRANSLATION ACCESS:          0  HIT:          0  MISS:          0
cpu0_STLB PREFETCH  REQUESTED:          0  ISSUED:          0  USEFUL:          0  USELESS:          0
cpu0_STLB AVERAGE MISS LATENCY: 220.571 cycles
cpu0_L1D TOTAL     ACCESS:    7314696  HIT:    4927663  MISS:    2387033
cpu0_L1D LOAD      ACCESS:    6450075  HIT:    4065219  MISS:    2384856
cpu0_L1D RFO       ACCESS:     106932  HIT:     106932  MISS:          0
cpu0_L1D PREFETCH  ACCESS:          0  HIT:          0  MISS:          0
cpu0_L1D WRITEBACK ACCESS:     755351  HIT:     755351  MISS:          0
cpu0_L1D TRANSLATION ACCESS:       2338  HIT:        161  MISS:       2177
cpu0_L1D PREFETCH  REQUESTED:          0  ISSUED:          0  USEFUL:          0  USELESS:          0
cpu0_L1D AVERAGE MISS LATENCY: 107.321 cycles
cpu0_L2C TOTAL     ACCESS:    5722234  HIT:    1703787  MISS:    4018447
cpu0_L2C LOAD      ACCESS:    2384794  HIT:     753280  MISS:    1631514
cpu0_L2C RFO       ACCESS:          0  HIT:          0  MISS:          0
cpu0_L2C PREFETCH  ACCESS:          0  HIT:          0  MISS:          0
cpu0_L2C WRITEBACK ACCESS:    3335264  HIT:     948436  MISS:    2386828
cpu0_L2C TRANSLATION ACCESS:       2176  HIT:       2071  MISS:        105
cpu0_L2C PREFETCH  REQUESTED:          0  ISSUED:          0  USEFUL:          0  USELESS:          0
cpu0_L2C AVERAGE MISS LATENCY: 57.0853 cycles
LLC TOTAL     ACCESS:    4018480  HIT:    1632244  MISS:    2386236
LLC LOAD      ACCESS:    1631491  HIT:     948139  MISS:     683352
LLC RFO       ACCESS:          0  HIT:          0  MISS:          0
LLC PREFETCH  ACCESS:          0  HIT:          0  MISS:          0
LLC WRITEBACK ACCESS:    2386884  HIT:     684014  MISS:    1702870
LLC TRANSLATION ACCESS:        105  HIT:         91  MISS:         14
LLC PREFETCH  REQUESTED:          0  ISSUED:          0  USEFUL:          0  USELESS:          0
LLC AVERAGE MISS LATENCY: 81.7733 cycles

DRAM Statistics
 CHANNEL 0
 RQ ROW_BUFFER_HIT:       9807  ROW_BUFFER_MISS:     672948
 DBUS AVG_CONGESTED_CYCLE:    3.99073
 WQ ROW_BUFFER_HIT:       6403  ROW_BUFFER_MISS:    1105055  FULL:      24060


CPU 0 Branch Prediction Accuracy: 84.6764% MPKI: 31.4387 Average ROB Occupancy at Mispredict: 14.6385
Branch type MPKI
BRANCH_DIRECT_JUMP: 0
BRANCH_INDIRECT: 0
BRANCH_CONDITIONAL: 31.4387
BRANCH_DIRECT_CALL: 0
BRANCH_INDIRECT_CALL: 0
BRANCH_RETURN: 0

