
*** ChampSim Multicore Out-of-Order Simulator ***

Warmup Instructions: 30000000
Simulation Instructions: 30000000
Number of CPUs: 1
Off-chip DRAM Size: 4 GiB Channels: 1 Width: 64-bit Data Rate: 3200 MT/s

VirtualMemory physical capacity: 8588881920 num_ppages: 2096895
VirtualMemory page size: 4096 log2_page_size: 12

CPU 0 runs gap_traces/cc-6.trace.gz
CPU 0 Bimodal branch predictor
Basic BTB sets: 1024 ways: 8 indirect buffer size: 4096 RAS size: 64
Heartbeat CPU 0 instructions: 10000004 cycles: 2549851 heartbeat IPC: 3.9218 cumulative IPC: 3.9218 (Simulation time: 0 hr 0 min 12 sec) 
Heartbeat CPU 0 instructions: 20000002 cycles: 5242360 heartbeat IPC: 3.71401 cumulative IPC: 3.81508 (Simulation time: 0 hr 0 min 27 sec) 
Heartbeat CPU 0 instructions: 30000004 cycles: 8005885 heartbeat IPC: 3.61857 cumulative IPC: 3.74724 (Simulation time: 0 hr 0 min 42 sec) 

Warmup complete CPU 0 instructions: 30000004 cycles: 8005885 (Simulation time: 0 hr 0 min 42 sec) 

Heartbeat CPU 0 instructions: 40000000 cycles: 82555656 heartbeat IPC: 0.134139 cumulative IPC: 0.134139 (Simulation time: 0 hr 1 min 35 sec) 
Heartbeat CPU 0 instructions: 50000000 cycles: 156522580 heartbeat IPC: 0.135196 cumulative IPC: 0.134665 (Simulation time: 0 hr 2 min 28 sec) 
Heartbeat CPU 0 instructions: 60000003 cycles: 229790037 heartbeat IPC: 0.136486 cumulative IPC: 0.135267 (Simulation time: 0 hr 3 min 22 sec) 
Finished CPU 0 instructions: 30000004 cycles: 221784153 cumulative IPC: 0.135267 (Simulation time: 0 hr 3 min 22 sec) 

ChampSim completed all CPUs

Region of Interest Statistics

CPU 0 cumulative IPC: 0.135267 instructions: 30000004 cycles: 221784153
cpu0_DTLB TOTAL     ACCESS:    8046343  HIT:    6468555  MISS:    1577788
cpu0_DTLB LOAD      ACCESS:    7939817  HIT:    6362029  MISS:    1577788
cpu0_DTLB RFO       ACCESS:     106526  HIT:     106526  MISS:          0
cpu0_DTLB PREFETCH  ACCESS:          0  HIT:          0  MISS:          0
cpu0_DTLB WRITEBACK ACCESS:          0  HIT:          0  MISS:          0
cpu0_DTLB TRANSLATION ACCESS:          0  HIT:          0  MISS:          0
cpu0_DTLB PREFETCH  REQUESTED:          0  ISSUED:          0  USEFUL:          0  USELESS:          0
cpu0_DTLB AVERAGE MISS LATENCY: 9.74446 cycles
cpu0_ITLB TOTAL     ACCESS:    3208904  HIT:    3208904  MISS:          0
cpu0_ITLB LOAD      ACCESS:    3208904  HIT:    3208904  MISS:          0
cpu0_ITLB RFO       ACCESS:          0  HIT:          0  MISS:          0
cpu0_ITLB PREFETCH  ACCESS:          0  HIT:          0  MISS:          0
cpu0_ITLB WRITEBACK ACCESS:          0  HIT:          0  MISS:          0
cpu0_ITLB TRANSLATION ACCESS:          0  HIT:          0  MISS:          0
cpu0_ITLB PREFETCH  REQUESTED:          0  ISSUED:          0  USEFUL:          0  USELESS:          0
cpu0_ITLB AVERAGE MISS LATENCY: -nan cycles
cpu0_STLB TOTAL     ACCESS:    1577788  HIT:    1575450  MISS:       2338
cpu0_STLB LOAD      ACCESS:    1577788  HIT:    1575450  MISS:       2338
cpu0_STLB RFO       ACCESS:          0  HIT:          0  MISS:          0
cpu0_STLB PREFETCH  ACCESS:          0  HIT:          0  MISS:          0
cpu0_STLB WRITEBACK ACCESS:          0  HIT:          0  MISS:          0
cpu0_STLB TRANSLATION ACCESS:          0  HIT:          0  MISS:          0
cpu0_STLB PREFETCH  REQUESTED:          0  ISSUED:          0  USEFUL:          0  USELESS:          0
cpu0_STLB AVERAGE MISS LATENCY: 221.895 cycles
cpu0_L1D TOTAL     ACCESS:    7448274  HIT:    5061259  MISS:    2387015
cpu0_L1D LOAD      ACCESS:    6572020  HIT:    4187180  MISS:    2384840
cpu0_L1D RFO       ACCESS:     106932  HIT:     106932  MISS:          0
cpu0_L1D PREFETCH  ACCESS:          0  HIT:          0  MISS:          0
cpu0_L1D WRITEBACK ACCESS:     766984  HIT:     766984  MISS:          0
cpu0_L1D TRANSLATION ACCESS:       2338  HIT:        163  MISS:       2175
cpu0_L1D PREFETCH  REQUESTED:          0  ISSUED:          0  USEFUL:          0  USELESS:          0
cpu0_L1D AVERAGE MISS LATENCY: 175.442 cycles
cpu0_L2C TOTAL     ACCESS:    5109020  HIT:    1102171  MISS:    4006849
cpu0_L2C LOAD      ACCESS:    2384789  HIT:     764912  MISS:    1619877
cpu0_L2C RFO       ACCESS:          0  HIT:          0  MISS:          0
cpu0_L2C PREFETCH  ACCESS:          0  HIT:          0  MISS:          0
cpu0_L2C WRITEBACK ACCESS:    2722056  HIT:     335187  MISS:    2386869
cpu0_L2C TRANSLATION ACCESS:       2175  HIT:       2072  MISS:        103
cpu0_L2C PREFETCH  REQUESTED:          0  ISSUED:          0  USEFUL:          0  USELESS:          0
cpu0_L2C AVERAGE MISS LATENCY: 97.8347 cycles
LLC TOTAL     ACCESS:    4006920  HIT:     871140  MISS:    3135780
LLC LOAD      ACCESS:    1619856  HIT:     334972  MISS:    1284884
LLC RFO       ACCESS:          0  HIT:          0  MISS:          0
LLC PREFETCH  ACCESS:          0  HIT:          0  MISS:          0
LLC WRITEBACK ACCESS:    2386961  HIT:     536100  MISS:    1850861
LLC TRANSLATION ACCESS:        103  HIT:         68  MISS:         35
LLC PREFETCH  REQUESTED:          0  ISSUED:          0  USEFUL:          0  USELESS:          0
LLC AVERAGE MISS LATENCY: 114.163 cycles

DRAM Statistics
 CHANNEL 0
 RQ ROW_BUFFER_HIT:      33989  ROW_BUFFER_MISS:    1248762
 DBUS AVG_CONGESTED_CYCLE:    3.97673
 WQ ROW_BUFFER_HIT:       2404  ROW_BUFFER_MISS:     782637  FULL:        154


CPU 0 Branch Prediction Accuracy: 84.6764% MPKI: 31.4387 Average ROB Occupancy at Mispredict: 14.6451
Branch type MPKI
BRANCH_DIRECT_JUMP: 0
BRANCH_INDIRECT: 0
BRANCH_CONDITIONAL: 31.4387
BRANCH_DIRECT_CALL: 0
BRANCH_INDIRECT_CALL: 0
BRANCH_RETURN: 0

