
*** ChampSim Multicore Out-of-Order Simulator ***

Warmup Instructions: 30000000
Simulation Instructions: 30000000
Number of CPUs: 1
Off-chip DRAM Size: 4 GiB Channels: 1 Width: 64-bit Data Rate: 3200 MT/s

VirtualMemory physical capacity: 8588881920 num_ppages: 2096895
VirtualMemory page size: 4096 log2_page_size: 12

CPU 0 runs gap_traces/cc-6.trace.gz
CPU 0 Bimodal branch predictor
Basic BTB sets: 1024 ways: 8 indirect buffer size: 4096 RAS size: 64
Heartbeat CPU 0 instructions: 10000004 cycles: 2549808 heartbeat IPC: 3.92187 cumulative IPC: 3.92187 (Simulation time: 0 hr 0 min 13 sec) 
Heartbeat CPU 0 instructions: 20000002 cycles: 5242312 heartbeat IPC: 3.71401 cumulative IPC: 3.81511 (Simulation time: 0 hr 0 min 28 sec) 
Heartbeat CPU 0 instructions: 30000004 cycles: 8005836 heartbeat IPC: 3.61857 cumulative IPC: 3.74727 (Simulation time: 0 hr 0 min 44 sec) 

Warmup complete CPU 0 instructions: 30000004 cycles: 8005836 (Simulation time: 0 hr 0 min 44 sec) 

Heartbeat CPU 0 instructions: 40000000 cycles: 62777879 heartbeat IPC: 0.182575 cumulative IPC: 0.182575 (Simulation time: 0 hr 1 min 27 sec) 
Heartbeat CPU 0 instructions: 50000000 cycles: 120146061 heartbeat IPC: 0.174313 cumulative IPC: 0.178348 (Simulation time: 0 hr 2 min 14 sec) 
Heartbeat CPU 0 instructions: 60000003 cycles: 179679497 heartbeat IPC: 0.167973 cumulative IPC: 0.17475 (Simulation time: 0 hr 3 min 3 sec) 
Finished CPU 0 instructions: 30000004 cycles: 171673662 cumulative IPC: 0.17475 (Simulation time: 0 hr 3 min 3 sec) 

ChampSim completed all CPUs

Region of Interest Statistics

CPU 0 cumulative IPC: 0.17475 instructions: 30000004 cycles: 171673662
cpu0_DTLB TOTAL     ACCESS:    7972269  HIT:    6394537  MISS:    1577732
cpu0_DTLB LOAD      ACCESS:    7865692  HIT:    6287960  MISS:    1577732
cpu0_DTLB RFO       ACCESS:     106577  HIT:     106577  MISS:          0
cpu0_DTLB PREFETCH  ACCESS:          0  HIT:          0  MISS:          0
cpu0_DTLB WRITEBACK ACCESS:          0  HIT:          0  MISS:          0
cpu0_DTLB TRANSLATION ACCESS:          0  HIT:          0  MISS:          0
cpu0_DTLB PREFETCH  REQUESTED:          0  ISSUED:          0  USEFUL:          0  USELESS:          0
cpu0_DTLB AVERAGE MISS LATENCY: 9.74327 cycles
cpu0_ITLB TOTAL     ACCESS:    3222350  HIT:    3222350  MISS:          0
cpu0_ITLB LOAD      ACCESS:    3222350  HIT:    3222350  MISS:          0
cpu0_ITLB RFO       ACCESS:          0  HIT:          0  MISS:          0
cpu0_ITLB PREFETCH  ACCESS:          0  HIT:          0  MISS:          0
cpu0_ITLB WRITEBACK ACCESS:          0  HIT:          0  MISS:          0
cpu0_ITLB TRANSLATION ACCESS:          0  HIT:          0  MISS:          0
cpu0_ITLB PREFETCH  REQUESTED:          0  ISSUED:          0  USEFUL:          0  USELESS:          0
cpu0_ITLB AVERAGE MISS LATENCY: -nan cycles
cpu0_STLB TOTAL     ACCESS:    1577732  HIT:    1575394  MISS:       2338
cpu0_STLB LOAD      ACCESS:    1577732  HIT:    1575394  MISS:       2338
cpu0_STLB RFO       ACCESS:          0  HIT:          0  MISS:          0
cpu0_STLB PREFETCH  ACCESS:          0  HIT:          0  MISS:          0
cpu0_STLB WRITEBACK ACCESS:          0  HIT:          0  MISS:          0
cpu0_STLB TRANSLATION ACCESS:          0  HIT:          0  MISS:          0
cpu0_STLB PREFETCH  REQUESTED:          0  ISSUED:          0  USEFUL:          0  USELESS:          0
cpu0_STLB AVERAGE MISS LATENCY: 219.738 cycles
cpu0_L1D TOTAL     ACCESS:    7316296  HIT:    4929255  MISS:    2387041
cpu0_L1D LOAD      ACCESS:    6450756  HIT:    4065892  MISS:    2384864
cpu0_L1D RFO       ACCESS:     106932  HIT:     106932  MISS:          0
cpu0_L1D PREFETCH  ACCESS:          0  HIT:          0  MISS:          0
cpu0_L1D WRITEBACK ACCESS:     756270  HIT:     756270  MISS:          0
cpu0_L1D TRANSLATION ACCESS:       2338  HIT:        161  MISS:       2177
cpu0_L1D PREFETCH  REQUESTED:          0  ISSUED:          0  USEFUL:          0  USELESS:          0
cpu0_L1D AVERAGE MISS LATENCY: 106.443 cycles
cpu0_L2C TOTAL     ACCESS:    5734266  HIT:    1716807  MISS:    4017459
cpu0_L2C LOAD      ACCESS:    2384801  HIT:     754197  MISS:    1630604
cpu0_L2C RFO       ACCESS:          0  HIT:          0  MISS:          0
cpu0_L2C PREFETCH  ACCESS:          0  HIT:          0  MISS:          0
cpu0_L2C WRITEBACK ACCESS:    3347289  HIT:     960537  MISS:    2386752
cpu0_L2C TRANSLATION ACCESS:       2176  HIT:       2073  MISS:        103
cpu0_L2C PREFETCH  REQUESTED:          0  ISSUED:          0  USEFUL:          0  USELESS:          0
cpu0_L2C AVERAGE MISS LATENCY: 56.5778 cycles
LLC TOTAL     ACCESS:    4017476  HIT:    1653259  MISS:    2364217
LLC LOAD      ACCESS:    1630577  HIT:     960150  MISS:     670427
LLC RFO       ACCESS:          0  HIT:          0  MISS:          0
LLC PREFETCH  ACCESS:          0  HIT:          0  MISS:          0
LLC WRITEBACK ACCESS:    2386796  HIT:     693014  MISS:    1693782
LLC TRANSLATION ACCESS:        103  HIT:         95  MISS:          8
LLC PREFETCH  REQUESTED:          0  ISSUED:          0  USEFUL:          0  USELESS:          0
LLC AVERAGE MISS LATENCY: 81.6569 cycles

DRAM Statistics
 CHANNEL 0
 RQ ROW_BUFFER_HIT:      10093  ROW_BUFFER_MISS:     659767
 DBUS AVG_CONGESTED_CYCLE:    3.99131
 WQ ROW_BUFFER_HIT:       5698  ROW_BUFFER_MISS:    1118765  FULL:      24541


CPU 0 Branch Prediction Accuracy: 84.6764% MPKI: 31.4387 Average ROB Occupancy at Mispredict: 14.6377
Branch type MPKI
BRANCH_DIRECT_JUMP: 0
BRANCH_INDIRECT: 0
BRANCH_CONDITIONAL: 31.4387
BRANCH_DIRECT_CALL: 0
BRANCH_INDIRECT_CALL: 0
BRANCH_RETURN: 0

