
*** ChampSim Multicore Out-of-Order Simulator ***

Warmup Instructions: 30000000
Simulation Instructions: 30000000
Number of CPUs: 1
Off-chip DRAM Size: 4 GiB Channels: 1 Width: 64-bit Data Rate: 3200 MT/s

VirtualMemory physical capacity: 8588881920 num_ppages: 2096895
VirtualMemory page size: 4096 log2_page_size: 12

CPU 0 runs gap_traces/cc-6.trace.gz
CPU 0 Bimodal branch predictor
Basic BTB sets: 1024 ways: 8 indirect buffer size: 4096 RAS size: 64
Heartbeat CPU 0 instructions: 10000004 cycles: 2549856 heartbeat IPC: 3.92179 cumulative IPC: 3.92179 (Simulation time: 0 hr 0 min 13 sec) 
Heartbeat CPU 0 instructions: 20000002 cycles: 5242367 heartbeat IPC: 3.714 cumulative IPC: 3.81507 (Simulation time: 0 hr 0 min 28 sec) 
Heartbeat CPU 0 instructions: 30000004 cycles: 8005892 heartbeat IPC: 3.61857 cumulative IPC: 3.74724 (Simulation time: 0 hr 0 min 43 sec) 

Warmup complete CPU 0 instructions: 30000004 cycles: 8005892 (Simulation time: 0 hr 0 min 43 sec) 

Heartbeat CPU 0 instructions: 40000000 cycles: 90504699 heartbeat IPC: 0.121214 cumulative IPC: 0.121214 (Simulation time: 0 hr 1 min 42 sec) 
Heartbeat CPU 0 instructions: 50000000 cycles: 172485400 heartbeat IPC: 0.12198 cumulative IPC: 0.121596 (Simulation time: 0 hr 2 min 42 sec) 
Heartbeat CPU 0 instructions: 60000003 cycles: 253479372 heartbeat IPC: 0.123466 cumulative IPC: 0.122213 (Simulation time: 0 hr 3 min 41 sec) 
Finished CPU 0 instructions: 30000004 cycles: 245473481 cumulative IPC: 0.122213 (Simulation time: 0 hr 3 min 41 sec) 

ChampSim completed all CPUs

Region of Interest Statistics

CPU 0 cumulative IPC: 0.122213 instructions: 30000004 cycles: 245473481
cpu0_DTLB TOTAL     ACCESS:    8062490  HIT:    6484700  MISS:    1577790
cpu0_DTLB LOAD      ACCESS:    7955980  HIT:    6378190  MISS:    1577790
cpu0_DTLB RFO       ACCESS:     106510  HIT:     106510  MISS:          0
cpu0_DTLB PREFETCH  ACCESS:          0  HIT:          0  MISS:          0
cpu0_DTLB WRITEBACK ACCESS:          0  HIT:          0  MISS:          0
cpu0_DTLB TRANSLATION ACCESS:          0  HIT:          0  MISS:          0
cpu0_DTLB PREFETCH  REQUESTED:          0  ISSUED:          0  USEFUL:          0  USELESS:          0
cpu0_DTLB AVERAGE MISS LATENCY: 9.75039 cycles
cpu0_ITLB TOTAL     ACCESS:    3205621  HIT:    3205621  MISS:          0
cpu0_ITLB LOAD      ACCESS:    3205621  HIT:    3205621  MISS:          0
cpu0_ITLB RFO       ACCESS:          0  HIT:          0  MISS:          0
cpu0_ITLB PREFETCH  ACCESS:          0  HIT:          0  MISS:          0
cpu0_ITLB WRITEBACK ACCESS:          0  HIT:          0  MISS:          0
cpu0_ITLB TRANSLATION ACCESS:          0  HIT:          0  MISS:          0
cpu0_ITLB PREFETCH  REQUESTED:          0  ISSUED:          0  USEFUL:          0  USELESS:          0
cpu0_ITLB AVERAGE MISS LATENCY: -nan cycles
cpu0_STLB TOTAL     ACCESS:    1577790  HIT:    1575452  MISS:       2338
cpu0_STLB LOAD      ACCESS:    1577790  HIT:    1575452  MISS:       2338
cpu0_STLB RFO       ACCESS:          0  HIT:          0  MISS:          0
cpu0_STLB PREFETCH  ACCESS:          0  HIT:          0  MISS:          0
cpu0_STLB WRITEBACK ACCESS:          0  HIT:          0  MISS:          0
cpu0_STLB TRANSLATION ACCESS:          0  HIT:          0  MISS:          0
cpu0_STLB PREFETCH  REQUESTED:          0  ISSUED:          0  USEFUL:          0  USELESS:          0
cpu0_STLB AVERAGE MISS LATENCY: 227.003 cycles
cpu0_L1D TOTAL     ACCESS:    7487920  HIT:    5100884  MISS:    2387036
cpu0_L1D LOAD      ACCESS:    6604018  HIT:    4219159  MISS:    2384859
cpu0_L1D RFO       ACCESS:     106932  HIT:     106932  MISS:          0
cpu0_L1D PREFETCH  ACCESS:          0  HIT:          0  MISS:          0
cpu0_L1D WRITEBACK ACCESS:     774632  HIT:     774632  MISS:          0
cpu0_L1D TRANSLATION ACCESS:       2338  HIT:        161  MISS:       2177
cpu0_L1D PREFETCH  REQUESTED:          0  ISSUED:          0  USEFUL:          0  USELESS:          0
cpu0_L1D AVERAGE MISS LATENCY: 211.072 cycles
cpu0_L2C TOTAL     ACCESS:    4846275  HIT:     847053  MISS:    3999222
cpu0_L2C LOAD      ACCESS:    2384802  HIT:     772558  MISS:    1612244
cpu0_L2C RFO       ACCESS:          0  HIT:          0  MISS:          0
cpu0_L2C PREFETCH  ACCESS:          0  HIT:          0  MISS:          0
cpu0_L2C WRITEBACK ACCESS:    2459296  HIT:      72421  MISS:    2386875
cpu0_L2C TRANSLATION ACCESS:       2177  HIT:       2074  MISS:        103
cpu0_L2C PREFETCH  REQUESTED:          0  ISSUED:          0  USEFUL:          0  USELESS:          0
cpu0_L2C AVERAGE MISS LATENCY: 119.29 cycles
LLC TOTAL     ACCESS:    3999292  HIT:     258804  MISS:    3740488
LLC LOAD      ACCESS:    1612221  HIT:      72249  MISS:    1539972
LLC RFO       ACCESS:          0  HIT:          0  MISS:          0
LLC PREFETCH  ACCESS:          0  HIT:          0  MISS:          0
LLC WRITEBACK ACCESS:    2386968  HIT:     186544  MISS:    2200424
LLC TRANSLATION ACCESS:        103  HIT:         11  MISS:         92
LLC PREFETCH  REQUESTED:          0  ISSUED:          0  USEFUL:          0  USELESS:          0
LLC AVERAGE MISS LATENCY: 118.489 cycles

DRAM Statistics
 CHANNEL 0
 RQ ROW_BUFFER_HIT:      47871  ROW_BUFFER_MISS:    1489562
 DBUS AVG_CONGESTED_CYCLE:    3.97638
 WQ ROW_BUFFER_HIT:       1918  ROW_BUFFER_MISS:     741734  FULL:          0


CPU 0 Branch Prediction Accuracy: 84.6764% MPKI: 31.4387 Average ROB Occupancy at Mispredict: 14.6464
Branch type MPKI
BRANCH_DIRECT_JUMP: 0
BRANCH_INDIRECT: 0
BRANCH_CONDITIONAL: 31.4387
BRANCH_DIRECT_CALL: 0
BRANCH_INDIRECT_CALL: 0
BRANCH_RETURN: 0

