
*** ChampSim Multicore Out-of-Order Simulator ***

Warmup Instructions: 30000000
Simulation Instructions: 30000000
Number of CPUs: 1
Off-chip DRAM Size: 4 GiB Channels: 1 Width: 64-bit Data Rate: 3200 MT/s

VirtualMemory physical capacity: 8588881920 num_ppages: 2096895
VirtualMemory page size: 4096 log2_page_size: 12

CPU 0 runs gap_traces/cc-6.trace.gz
CPU 0 Bimodal branch predictor
Basic BTB sets: 1024 ways: 8 indirect buffer size: 4096 RAS size: 64
Heartbeat CPU 0 instructions: 10000004 cycles: 2549814 heartbeat IPC: 3.92186 cumulative IPC: 3.92186 (Simulation time: 0 hr 0 min 12 sec) 
Heartbeat CPU 0 instructions: 20000002 cycles: 5242315 heartbeat IPC: 3.71402 cumulative IPC: 3.81511 (Simulation time: 0 hr 0 min 27 sec) 
Heartbeat CPU 0 instructions: 30000004 cycles: 8005836 heartbeat IPC: 3.61857 cumulative IPC: 3.74727 (Simulation time: 0 hr 0 min 42 sec) 

Warmup complete CPU 0 instructions: 30000004 cycles: 8005836 (Simulation time: 0 hr 0 min 42 sec) 

Heartbeat CPU 0 instructions: 40000000 cycles: 48934137 heartbeat IPC: 0.24433 cumulative IPC: 0.24433 (Simulation time: 0 hr 1 min 16 sec) 
Heartbeat CPU 0 instructions: 50000000 cycles: 90124934 heartbeat IPC: 0.242773 cumulative IPC: 0.243549 (Simulation time: 0 hr 1 min 51 sec) 
Heartbeat CPU 0 instructions: 60000003 cycles: 131880406 heartbeat IPC: 0.23949 cumulative IPC: 0.24218 (Simulation time: 0 hr 2 min 27 sec) 
Finished CPU 0 instructions: 30000004 cycles: 123874571 cumulative IPC: 0.24218 (Simulation time: 0 hr 2 min 27 sec) 

ChampSim completed all CPUs

Region of Interest Statistics

CPU 0 cumulative IPC: 0.24218 instructions: 30000004 cycles: 123874571
cpu0_DTLB TOTAL     ACCESS:    7876975  HIT:    6299243  MISS:    1577732
cpu0_DTLB LOAD      ACCESS:    7770354  HIT:    6192622  MISS:    1577732
cpu0_DTLB RFO       ACCESS:     106621  HIT:     106621  MISS:          0
cpu0_DTLB PREFETCH  ACCESS:          0  HIT:          0  MISS:          0
cpu0_DTLB WRITEBACK ACCESS:          0  HIT:          0  MISS:          0
cpu0_DTLB TRANSLATION ACCESS:          0  HIT:          0  MISS:          0
cpu0_DTLB PREFETCH  REQUESTED:          0  ISSUED:          0  USEFUL:          0  USELESS:          0
cpu0_DTLB AVERAGE MISS LATENCY: 9.74808 cycles
cpu0_ITLB TOTAL     ACCESS:    3253678  HIT:    3253678  MISS:          0
cpu0_ITLB LOAD      ACCESS:    3253678  HIT:    3253678  MISS:          0
cpu0_ITLB RFO       ACCESS:          0  HIT:          0  MISS:          0
cpu0_ITLB PREFETCH  ACCESS:          0  HIT:          0  MISS:          0
cpu0_ITLB WRITEBACK ACCESS:          0  HIT:          0  MISS:          0
cpu0_ITLB TRANSLATION ACCESS:          0  HIT:          0  MISS:          0
cpu0_ITLB PREFETCH  REQUESTED:          0  ISSUED:          0  USEFUL:          0  USELESS:          0
cpu0_ITLB AVERAGE MISS LATENCY: -nan cycles
cpu0_STLB TOTAL     ACCESS:    1577732  HIT:    1575394  MISS:       2338
cpu0_STLB LOAD      ACCESS:    1577732  HIT:    1575394  MISS:       2338
cpu0_STLB RFO       ACCESS:          0  HIT:          0  MISS:          0
cpu0_STLB PREFETCH  ACCESS:          0  HIT:          0  MISS:          0
cpu0_STLB WRITEBACK ACCESS:          0  HIT:          0  MISS:          0
cpu0_STLB TRANSLATION ACCESS:          0  HIT:          0  MISS:          0
cpu0_STLB PREFETCH  REQUESTED:          0  ISSUED:          0  USEFUL:          0  USELESS:          0
cpu0_STLB AVERAGE MISS LATENCY: 219.191 cycles
cpu0_L1D TOTAL     ACCESS:    7160070  HIT:    4773039  MISS:    2387031
cpu0_L1D LOAD      ACCESS:    6301723  HIT:    3916871  MISS:    2384852
cpu0_L1D RFO       ACCESS:     106932  HIT:     106932  MISS:          0
cpu0_L1D PREFETCH  ACCESS:          0  HIT:          0  MISS:          0
cpu0_L1D WRITEBACK ACCESS:     749077  HIT:     749077  MISS:          0
cpu0_L1D TRANSLATION ACCESS:       2338  HIT:        159  MISS:       2179
cpu0_L1D PREFETCH  REQUESTED:          0  ISSUED:          0  USEFUL:          0  USELESS:          0
cpu0_L1D AVERAGE MISS LATENCY: 50.2212 cycles
cpu0_L2C TOTAL     ACCESS:    6244410  HIT:    2219732  MISS:    4024678
cpu0_L2C LOAD      ACCESS:    2384766  HIT:     747006  MISS:    1637760
cpu0_L2C RFO       ACCESS:          0  HIT:          0  MISS:          0
cpu0_L2C PREFETCH  ACCESS:          0  HIT:          0  MISS:          0
cpu0_L2C WRITEBACK ACCESS:    3857468  HIT:    1470655  MISS:    2386813
cpu0_L2C TRANSLATION ACCESS:       2176  HIT:       2071  MISS:        105
cpu0_L2C PREFETCH  REQUESTED:          0  ISSUED:          0  USEFUL:          0  USELESS:          0
cpu0_L2C AVERAGE MISS LATENCY: 23.1124 cycles
LLC TOTAL     ACCESS:    4024691  HIT:    2219527  MISS:    1805164
LLC LOAD      ACCESS:    1637740  HIT:    1470330  MISS:     167410
LLC RFO       ACCESS:          0  HIT:          0  MISS:          0
LLC PREFETCH  ACCESS:          0  HIT:          0  MISS:          0
LLC WRITEBACK ACCESS:    2386846  HIT:     749092  MISS:    1637754
LLC TRANSLATION ACCESS:        105  HIT:        105  MISS:          0
LLC PREFETCH  REQUESTED:          0  ISSUED:          0  USEFUL:          0  USELESS:          0
LLC AVERAGE MISS LATENCY: 32.4764 cycles

DRAM Statistics
 CHANNEL 0
 RQ ROW_BUFFER_HIT:        355  ROW_BUFFER_MISS:     167048
 DBUS AVG_CONGESTED_CYCLE:    4.00385
 WQ ROW_BUFFER_HIT:       5870  ROW_BUFFER_MISS:    1471051  FULL:      84473


CPU 0 Branch Prediction Accuracy: 84.6764% MPKI: 31.4387 Average ROB Occupancy at Mispredict: 14.6312
Branch type MPKI
BRANCH_DIRECT_JUMP: 0
BRANCH_INDIRECT: 0
BRANCH_CONDITIONAL: 31.4387
BRANCH_DIRECT_CALL: 0
BRANCH_INDIRECT_CALL: 0
BRANCH_RETURN: 0

