
*** ChampSim Multicore Out-of-Order Simulator ***

Warmup Instructions: 30000000
Simulation Instructions: 30000000
Number of CPUs: 1
Off-chip DRAM Size: 4 GiB Channels: 1 Width: 64-bit Data Rate: 3200 MT/s

VirtualMemory physical capacity: 8588881920 num_ppages: 2096895
VirtualMemory page size: 4096 log2_page_size: 12

CPU 0 runs gap_traces/cc-6.trace.gz
CPU 0 Bimodal branch predictor
Basic BTB sets: 1024 ways: 8 indirect buffer size: 4096 RAS size: 64
Heartbeat CPU 0 instructions: 10000004 cycles: 2549851 heartbeat IPC: 3.9218 cumulative IPC: 3.9218 (Simulation time: 0 hr 0 min 13 sec) 
Heartbeat CPU 0 instructions: 20000002 cycles: 5242361 heartbeat IPC: 3.71401 cumulative IPC: 3.81508 (Simulation time: 0 hr 0 min 27 sec) 
Heartbeat CPU 0 instructions: 30000004 cycles: 8005886 heartbeat IPC: 3.61857 cumulative IPC: 3.74724 (Simulation time: 0 hr 0 min 43 sec) 

Warmup complete CPU 0 instructions: 30000004 cycles: 8005886 (Simulation time: 0 hr 0 min 43 sec) 

Heartbeat CPU 0 instructions: 40000000 cycles: 81040496 heartbeat IPC: 0.136921 cumulative IPC: 0.136921 (Simulation time: 0 hr 1 min 34 sec) 
Heartbeat CPU 0 instructions: 50000000 cycles: 153394095 heartbeat IPC: 0.13821 cumulative IPC: 0.137563 (Simulation time: 0 hr 2 min 25 sec) 
Heartbeat CPU 0 instructions: 60000003 cycles: 225107840 heartbeat IPC: 0.139443 cumulative IPC: 0.138184 (Simulation time: 0 hr 3 min 17 sec) 
Finished CPU 0 instructions: 30000004 cycles: 217101955 cumulative IPC: 0.138184 (Simulation time: 0 hr 3 min 17 sec) 

ChampSim completed all CPUs

Region of Interest Statistics

CPU 0 cumulative IPC: 0.138184 instructions: 30000004 cycles: 217101955
cpu0_DTLB TOTAL     ACCESS:    8043752  HIT:    6465987  MISS:    1577765
cpu0_DTLB LOAD      ACCESS:    7937232  HIT:    6359467  MISS:    1577765
cpu0_DTLB RFO       ACCESS:     106520  HIT:     106520  MISS:          0
cpu0_DTLB PREFETCH  ACCESS:          0  HIT:          0  MISS:          0
cpu0_DTLB WRITEBACK ACCESS:          0  HIT:          0  MISS:          0
cpu0_DTLB TRANSLATION ACCESS:          0  HIT:          0  MISS:          0
cpu0_DTLB PREFETCH  REQUESTED:          0  ISSUED:          0  USEFUL:          0  USELESS:          0
cpu0_DTLB AVERAGE MISS LATENCY: 9.74547 cycles
cpu0_ITLB TOTAL     ACCESS:    3209259  HIT:    3209259  MISS:          0
cpu0_ITLB LOAD      ACCESS:    3209259  HIT:    3209259  MISS:          0
cpu0_ITLB RFO       ACCESS:          0  HIT:          0  MISS:          0
cpu0_ITLB PREFETCH  ACCESS:          0  HIT:          0  MISS:          0
cpu0_ITLB WRITEBACK ACCESS:          0  HIT:          0  MISS:          0
cpu0_ITLB TRANSLATION ACCESS:          0  HIT:          0  MISS:          0
cpu0_ITLB PREFETCH  REQUESTED:          0  ISSUED:          0  USEFUL:          0  USELESS:          0
cpu0_ITLB AVERAGE MISS LATENCY: -nan cycles
cpu0_STLB TOTAL     ACCESS:    1577765  HIT:    1575427  MISS:       2338
cpu0_STLB LOAD      ACCESS:    1577765  HIT:    1575427  MISS:       2338
cpu0_STLB RFO       ACCESS:          0  HIT:          0  MISS:          0
cpu0_STLB PREFETCH  ACCESS:          0  HIT:          0  MISS:          0
cpu0_STLB WRITEBACK ACCESS:          0  HIT:          0  MISS:          0
cpu0_STLB TRANSLATION ACCESS:          0  HIT:          0  MISS:          0
cpu0_STLB PREFETCH  REQUESTED:          0  ISSUED:          0  USEFUL:          0  USELESS:          0
cpu0_STLB AVERAGE MISS LATENCY: 222.278 cycles
cpu0_L1D TOTAL     ACCESS:    7442790  HIT:    5055746  MISS:    2387044
cpu0_L1D LOAD      ACCESS:    6567105  HIT:    4182238  MISS:    2384867
cpu0_L1D RFO       ACCESS:     106932  HIT:     106932  MISS:          0
cpu0_L1D PREFETCH  ACCESS:          0  HIT:          0  MISS:          0
cpu0_L1D WRITEBACK ACCESS:     766415  HIT:     766415  MISS:          0
cpu0_L1D TRANSLATION ACCESS:       2338  HIT:        161  MISS:       2177
cpu0_L1D PREFETCH  REQUESTED:          0  ISSUED:          0  USEFUL:          0  USELESS:          0
cpu0_L1D AVERAGE MISS LATENCY: 169.157 cycles
cpu0_L2C TOTAL     ACCESS:    5136747  HIT:    1129298  MISS:    4007449
cpu0_L2C LOAD      ACCESS:    2384807  HIT:     764342  MISS:    1620465
cpu0_L2C RFO       ACCESS:          0  HIT:          0  MISS:          0
cpu0_L2C PREFETCH  ACCESS:          0  HIT:          0  MISS:          0
cpu0_L2C WRITEBACK ACCESS:    2749763  HIT:     362883  MISS:    2386880
cpu0_L2C TRANSLATION ACCESS:       2177  HIT:       2073  MISS:        104
cpu0_L2C PREFETCH  REQUESTED:          0  ISSUED:          0  USEFUL:          0  USELESS:          0
cpu0_L2C AVERAGE MISS LATENCY: 94.0772 cycles
LLC TOTAL     ACCESS:    4007514  HIT:     892628  MISS:    3114886
LLC LOAD      ACCESS:    1620446  HIT:     362656  MISS:    1257790
LLC RFO       ACCESS:          0  HIT:          0  MISS:          0
LLC PREFETCH  ACCESS:          0  HIT:          0  MISS:          0
LLC WRITEBACK ACCESS:    2386964  HIT:     529910  MISS:    1857054
LLC TRANSLATION ACCESS:        104  HIT:         62  MISS:         42
LLC PREFETCH  REQUESTED:          0  ISSUED:          0  USEFUL:          0  USELESS:          0
LLC AVERAGE MISS LATENCY: 110.109 cycles

DRAM Statistics
 CHANNEL 0
 RQ ROW_BUFFER_HIT:      32217  ROW_BUFFER_MISS:    1223871
 DBUS AVG_CONGESTED_CYCLE:    3.97439
 WQ ROW_BUFFER_HIT:       2764  ROW_BUFFER_MISS:     741842  FULL:        113


CPU 0 Branch Prediction Accuracy: 84.6764% MPKI: 31.4387 Average ROB Occupancy at Mispredict: 14.6445
Branch type MPKI
BRANCH_DIRECT_JUMP: 0
BRANCH_INDIRECT: 0
BRANCH_CONDITIONAL: 31.4387
BRANCH_DIRECT_CALL: 0
BRANCH_INDIRECT_CALL: 0
BRANCH_RETURN: 0

