
*** ChampSim Multicore Out-of-Order Simulator ***

Warmup Instructions: 30000000
Simulation Instructions: 30000000
Number of CPUs: 1
Off-chip DRAM Size: 4 GiB Channels: 1 Width: 64-bit Data Rate: 3200 MT/s

VirtualMemory physical capacity: 8588881920 num_ppages: 2096895
VirtualMemory page size: 4096 log2_page_size: 12

CPU 0 runs gap_traces/bfs-3.trace.gz
CPU 0 Bimodal branch predictor
Basic BTB sets: 1024 ways: 8 indirect buffer size: 4096 RAS size: 64
Heartbeat CPU 0 instructions: 10000003 cycles: 2500200 heartbeat IPC: 3.99968 cumulative IPC: 3.99968 (Simulation time: 0 hr 0 min 13 sec) 
Heartbeat CPU 0 instructions: 20000003 cycles: 5135373 heartbeat IPC: 3.79482 cumulative IPC: 3.89456 (Simulation time: 0 hr 0 min 29 sec) 
Heartbeat CPU 0 instructions: 30000001 cycles: 7762210 heartbeat IPC: 3.80686 cumulative IPC: 3.86488 (Simulation time: 0 hr 0 min 45 sec) 

Warmup complete CPU 0 instructions: 30000001 cycles: 7762210 (Simulation time: 0 hr 0 min 45 sec) 

Heartbeat CPU 0 instructions: 40000002 cycles: 49435693 heartbeat IPC: 0.239961 cumulative IPC: 0.239961 (Simulation time: 0 hr 1 min 15 sec) 
Heartbeat CPU 0 instructions: 50000000 cycles: 95962496 heartbeat IPC: 0.21493 cumulative IPC: 0.226757 (Simulation time: 0 hr 1 min 46 sec) 
Heartbeat CPU 0 instructions: 60000000 cycles: 151951658 heartbeat IPC: 0.178606 cumulative IPC: 0.20806 (Simulation time: 0 hr 2 min 23 sec) 
Finished CPU 0 instructions: 30000003 cycles: 144189449 cumulative IPC: 0.20806 (Simulation time: 0 hr 2 min 23 sec) 

ChampSim completed all CPUs

Region of Interest Statistics

CPU 0 cumulative IPC: 0.20806 instructions: 30000003 cycles: 144189449
cpu0_DTLB TOTAL     ACCESS:    6723330  HIT:    6681210  MISS:      42120
cpu0_DTLB LOAD      ACCESS:    5965110  HIT:    5923123  MISS:      41987
cpu0_DTLB RFO       ACCESS:     758220  HIT:     758087  MISS:        133
cpu0_DTLB PREFETCH  ACCESS:          0  HIT:          0  MISS:          0
cpu0_DTLB WRITEBACK ACCESS:          0  HIT:          0  MISS:          0
cpu0_DTLB TRANSLATION ACCESS:          0  HIT:          0  MISS:          0
cpu0_DTLB PREFETCH  REQUESTED:          0  ISSUED:          0  USEFUL:          0  USELESS:          0
cpu0_DTLB AVERAGE MISS LATENCY: 65.7936 cycles
cpu0_ITLB TOTAL     ACCESS:    3444641  HIT:    3444641  MISS:          0
cpu0_ITLB LOAD      ACCESS:    3444641  HIT:    3444641  MISS:          0
cpu0_ITLB RFO       ACCESS:          0  HIT:          0  MISS:          0
cpu0_ITLB PREFETCH  ACCESS:          0  HIT:          0  MISS:          0
cpu0_ITLB WRITEBACK ACCESS:          0  HIT:          0  MISS:          0
cpu0_ITLB TRANSLATION ACCESS:          0  HIT:          0  MISS:          0
cpu0_ITLB PREFETCH  REQUESTED:          0  ISSUED:          0  USEFUL:          0  USELESS:          0
cpu0_ITLB AVERAGE MISS LATENCY: -nan cycles
cpu0_L1I TOTAL     ACCESS:         91  HIT:         90  MISS:          1
cpu0_L1I LOAD      ACCESS:         91  HIT:         90  MISS:          1
cpu0_L1I RFO       ACCESS:          0  HIT:          0  MISS:          0
cpu0_L1I PREFETCH  ACCESS:          0  HIT:          0  MISS:          0
cpu0_L1I WRITEBACK ACCESS:          0  HIT:          0  MISS:          0
cpu0_L1I TRANSLATION ACCESS:          0  HIT:          0  MISS:          0
cpu0_L1I PREFETCH  REQUESTED:          0  ISSUED:          0  USEFUL:          0  USELESS:          0
cpu0_L1I AVERAGE MISS LATENCY: 194 cycles
cpu0_STLB TOTAL     ACCESS:      42120  HIT:       3899  MISS:      38221
cpu0_STLB LOAD      ACCESS:      41987  HIT:       3813  MISS:      38174
cpu0_STLB RFO       ACCESS:        133  HIT:         86  MISS:         47
cpu0_STLB PREFETCH  ACCESS:          0  HIT:          0  MISS:          0
cpu0_STLB WRITEBACK ACCESS:          0  HIT:          0  MISS:          0
cpu0_STLB TRANSLATION ACCESS:          0  HIT:          0  MISS:          0
cpu0_STLB PREFETCH  REQUESTED:          0  ISSUED:          0  USEFUL:          0  USELESS:          0
cpu0_STLB AVERAGE MISS LATENCY: 62.5871 cycles
cpu0_L1D TOTAL     ACCESS:    6662732  HIT:    5461890  MISS:    1200842
cpu0_L1D LOAD      ACCESS:    5825035  HIT:    4629173  MISS:    1195862
cpu0_L1D RFO       ACCESS:     799479  HIT:     795721  MISS:       3758
cpu0_L1D PREFETCH  ACCESS:          0  HIT:          0  MISS:          0
cpu0_L1D WRITEBACK ACCESS:          0  HIT:          0  MISS:          0
cpu0_L1D TRANSLATION ACCESS:      38218  HIT:      36996  MISS:       1222
cpu0_L1D PREFETCH  REQUESTED:          0  ISSUED:          0  USEFUL:          0  USELESS:          0
cpu0_L1D AVERAGE MISS LATENCY: 96.3823 cycles
cpu0_L2C TOTAL     ACCESS:    1300308  HIT:     664561  MISS:     635747
cpu0_L2C LOAD      ACCESS:    1195863  HIT:     560722  MISS:     635141
cpu0_L2C RFO       ACCESS:       3758  HIT:       3199  MISS:        559
cpu0_L2C PREFETCH  ACCESS:          0  HIT:          0  MISS:          0
cpu0_L2C WRITEBACK ACCESS:      99465  HIT:      99462  MISS:          3
cpu0_L2C TRANSLATION ACCESS:       1222  HIT:       1178  MISS:         44
cpu0_L2C PREFETCH  REQUESTED:          0  ISSUED:          0  USEFUL:          0  USELESS:          0
cpu0_L2C AVERAGE MISS LATENCY: 161.115 cycles
LLC TOTAL     ACCESS:     735949  HIT:      65102  MISS:     670847
LLC LOAD      ACCESS:     635141  HIT:      54337  MISS:     580804
LLC RFO       ACCESS:        559  HIT:          6  MISS:        553
LLC PREFETCH  ACCESS:          0  HIT:          0  MISS:          0
LLC WRITEBACK ACCESS:     100205  HIT:      10755  MISS:      89450
LLC TRANSLATION ACCESS:         44  HIT:          4  MISS:         40
LLC PREFETCH  REQUESTED:          0  ISSUED:          0  USEFUL:          0  USELESS:          0
LLC AVERAGE MISS LATENCY: 132.784 cycles

DRAM Statistics
 CHANNEL 0
 RQ ROW_BUFFER_HIT:      67779  ROW_BUFFER_MISS:     513617
 DBUS AVG_CONGESTED_CYCLE:    3.40191
 WQ ROW_BUFFER_HIT:      55775  ROW_BUFFER_MISS:      33665  FULL:          0


CPU 0 Branch Prediction Accuracy: 76.962% MPKI: 46.9029 Average ROB Occupancy at Mispredict: 7.59652
Branch type MPKI
BRANCH_DIRECT_JUMP: 3.33333e-05
BRANCH_INDIRECT: 0
BRANCH_CONDITIONAL: 46.9028
BRANCH_DIRECT_CALL: 3.33333e-05
BRANCH_INDIRECT_CALL: 0
BRANCH_RETURN: 3.33333e-05

