
*** ChampSim Multicore Out-of-Order Simulator ***

Warmup Instructions: 30000000
Simulation Instructions: 30000000
Number of CPUs: 1
Off-chip DRAM Size: 4 GiB Channels: 1 Width: 64-bit Data Rate: 3200 MT/s

VirtualMemory physical capacity: 8588881920 num_ppages: 2096895
VirtualMemory page size: 4096 log2_page_size: 12

CPU 0 runs gap_traces/cc-6.trace.gz
CPU 0 Bimodal branch predictor
Basic BTB sets: 1024 ways: 8 indirect buffer size: 4096 RAS size: 64
Heartbeat CPU 0 instructions: 10000004 cycles: 2549830 heartbeat IPC: 3.92183 cumulative IPC: 3.92183 (Simulation time: 0 hr 0 min 14 sec) 
Heartbeat CPU 0 instructions: 20000001 cycles: 5242345 heartbeat IPC: 3.714 cumulative IPC: 3.81509 (Simulation time: 0 hr 0 min 29 sec) 
Heartbeat CPU 0 instructions: 30000004 cycles: 8005869 heartbeat IPC: 3.61857 cumulative IPC: 3.74725 (Simulation time: 0 hr 0 min 46 sec) 

Warmup complete CPU 0 instructions: 30000004 cycles: 8005869 (Simulation time: 0 hr 0 min 46 sec) 

Heartbeat CPU 0 instructions: 40000000 cycles: 58043027 heartbeat IPC: 0.199851 cumulative IPC: 0.199851 (Simulation time: 0 hr 1 min 27 sec) 
Heartbeat CPU 0 instructions: 50000000 cycles: 107740150 heartbeat IPC: 0.201219 cumulative IPC: 0.200533 (Simulation time: 0 hr 2 min 7 sec) 
Heartbeat CPU 0 instructions: 60000003 cycles: 156193016 heartbeat IPC: 0.206386 cumulative IPC: 0.202447 (Simulation time: 0 hr 2 min 48 sec) 
Finished CPU 0 instructions: 30000004 cycles: 148187148 cumulative IPC: 0.202447 (Simulation time: 0 hr 2 min 48 sec) 

ChampSim completed all CPUs

Region of Interest Statistics

CPU 0 cumulative IPC: 0.202447 instructions: 30000004 cycles: 148187148
cpu0_DTLB TOTAL     ACCESS:    7974264  HIT:    6396507  MISS:    1577757
cpu0_DTLB LOAD      ACCESS:    7867692  HIT:    6289935  MISS:    1577757
cpu0_DTLB RFO       ACCESS:     106572  HIT:     106572  MISS:          0
cpu0_DTLB PREFETCH  ACCESS:          0  HIT:          0  MISS:          0
cpu0_DTLB WRITEBACK ACCESS:          0  HIT:          0  MISS:          0
cpu0_DTLB TRANSLATION ACCESS:          0  HIT:          0  MISS:          0
cpu0_DTLB PREFETCH  REQUESTED:          0  ISSUED:          0  USEFUL:          0  USELESS:          0
cpu0_DTLB AVERAGE MISS LATENCY: 9.74494 cycles
cpu0_ITLB TOTAL     ACCESS:    3221798  HIT:    3221798  MISS:          0
cpu0_ITLB LOAD      ACCESS:    3221798  HIT:    3221798  MISS:          0
cpu0_ITLB RFO       ACCESS:          0  HIT:          0  MISS:          0
cpu0_ITLB PREFETCH  ACCESS:          0  HIT:          0  MISS:          0
cpu0_ITLB WRITEBACK ACCESS:          0  HIT:          0  MISS:          0
cpu0_ITLB TRANSLATION ACCESS:          0  HIT:          0  MISS:          0
cpu0_ITLB PREFETCH  REQUESTED:          0  ISSUED:          0  USEFUL:          0  USELESS:          0
cpu0_ITLB AVERAGE MISS LATENCY: -nan cycles
cpu0_STLB TOTAL     ACCESS:    1577757  HIT:    1575419  MISS:       2338
cpu0_STLB LOAD      ACCESS:    1577757  HIT:    1575419  MISS:       2338
cpu0_STLB RFO       ACCESS:          0  HIT:          0  MISS:          0
cpu0_STLB PREFETCH  ACCESS:          0  HIT:          0  MISS:          0
cpu0_STLB WRITEBACK ACCESS:          0  HIT:          0  MISS:          0
cpu0_STLB TRANSLATION ACCESS:          0  HIT:          0  MISS:          0
cpu0_STLB PREFETCH  REQUESTED:          0  ISSUED:          0  USEFUL:          0  USELESS:          0
cpu0_STLB AVERAGE MISS LATENCY: 219.204 cycles
cpu0_L1D TOTAL     ACCESS:    6560617  HIT:    4173590  MISS:    2387027
cpu0_L1D LOAD      ACCESS:    6451347  HIT:    4066497  MISS:    2384850
cpu0_L1D RFO       ACCESS:     106932  HIT:     106932  MISS:          0
cpu0_L1D PREFETCH  ACCESS:          0  HIT:          0  MISS:          0
cpu0_L1D WRITEBACK ACCESS:          0  HIT:          0  MISS:          0
cpu0_L1D TRANSLATION ACCESS:       2338  HIT:        161  MISS:       2177
cpu0_L1D PREFETCH  REQUESTED:          0  ISSUED:          0  USEFUL:          0  USELESS:          0
cpu0_L1D AVERAGE MISS LATENCY: 80.3421 cycles
cpu0_L2C TOTAL     ACCESS:    2474986  HIT:     821405  MISS:    1653581
cpu0_L2C LOAD      ACCESS:    2384850  HIT:     731394  MISS:    1653456
cpu0_L2C RFO       ACCESS:          0  HIT:          0  MISS:          0
cpu0_L2C PREFETCH  ACCESS:          0  HIT:          0  MISS:          0
cpu0_L2C WRITEBACK ACCESS:      87959  HIT:      87940  MISS:         19
cpu0_L2C TRANSLATION ACCESS:       2177  HIT:       2071  MISS:        106
cpu0_L2C PREFETCH  REQUESTED:          0  ISSUED:          0  USEFUL:          0  USELESS:          0
cpu0_L2C AVERAGE MISS LATENCY: 99.7726 cycles
LLC TOTAL     ACCESS:    1741231  HIT:    1026166  MISS:     715065
LLC LOAD      ACCESS:    1653455  HIT:     938596  MISS:     714859
LLC RFO       ACCESS:          0  HIT:          0  MISS:          0
LLC PREFETCH  ACCESS:          0  HIT:          0  MISS:          0
LLC WRITEBACK ACCESS:      87670  HIT:      87464  MISS:        206
LLC TRANSLATION ACCESS:        106  HIT:        106  MISS:          0
LLC PREFETCH  REQUESTED:          0  ISSUED:          0  USEFUL:          0  USELESS:          0
LLC AVERAGE MISS LATENCY: 182.161 cycles

DRAM Statistics
 CHANNEL 0
 RQ ROW_BUFFER_HIT:      15080  ROW_BUFFER_MISS:     699748
 DBUS AVG_CONGESTED_CYCLE:    3.73196
 WQ ROW_BUFFER_HIT:      44453  ROW_BUFFER_MISS:      40056  FULL:          0


CPU 0 Branch Prediction Accuracy: 84.6764% MPKI: 31.4387 Average ROB Occupancy at Mispredict: 14.6404
Branch type MPKI
BRANCH_DIRECT_JUMP: 0
BRANCH_INDIRECT: 0
BRANCH_CONDITIONAL: 31.4387
BRANCH_DIRECT_CALL: 0
BRANCH_INDIRECT_CALL: 0
BRANCH_RETURN: 0

