
*** ChampSim Multicore Out-of-Order Simulator ***

Warmup Instructions: 30000000
Simulation Instructions: 30000000
Number of CPUs: 1
Off-chip DRAM Size: 4 GiB Channels: 1 Width: 64-bit Data Rate: 3200 MT/s

VirtualMemory physical capacity: 8588881920 num_ppages: 2096895
VirtualMemory page size: 4096 log2_page_size: 12

CPU 0 runs gap_traces/cc-6.trace.gz
CPU 0 Bimodal branch predictor
Basic BTB sets: 1024 ways: 8 indirect buffer size: 4096 RAS size: 64
Heartbeat CPU 0 instructions: 10000004 cycles: 2549827 heartbeat IPC: 3.92184 cumulative IPC: 3.92184 (Simulation time: 0 hr 0 min 13 sec) 
Heartbeat CPU 0 instructions: 20000002 cycles: 5242343 heartbeat IPC: 3.714 cumulative IPC: 3.81509 (Simulation time: 0 hr 0 min 29 sec) 
Heartbeat CPU 0 instructions: 30000004 cycles: 8005866 heartbeat IPC: 3.61857 cumulative IPC: 3.74725 (Simulation time: 0 hr 0 min 44 sec) 

Warmup complete CPU 0 instructions: 30000004 cycles: 8005866 (Simulation time: 0 hr 0 min 44 sec) 

Heartbeat CPU 0 instructions: 40000000 cycles: 57920627 heartbeat IPC: 0.200341 cumulative IPC: 0.200341 (Simulation time: 0 hr 1 min 21 sec) 
Heartbeat CPU 0 instructions: 50000000 cycles: 107478615 heartbeat IPC: 0.201784 cumulative IPC: 0.20106 (Simulation time: 0 hr 1 min 57 sec) 
Heartbeat CPU 0 instructions: 60000003 cycles: 155800066 heartbeat IPC: 0.206947 cumulative IPC: 0.202985 (Simulation time: 0 hr 2 min 34 sec) 
Finished CPU 0 instructions: 30000004 cycles: 147794201 cumulative IPC: 0.202985 (Simulation time: 0 hr 2 min 34 sec) 

ChampSim completed all CPUs

Region of Interest Statistics

CPU 0 cumulative IPC: 0.202985 instructions: 30000004 cycles: 147794201
cpu0_DTLB TOTAL     ACCESS:    7973625  HIT:    6395858  MISS:    1577767
cpu0_DTLB LOAD      ACCESS:    7867053  HIT:    6289286  MISS:    1577767
cpu0_DTLB RFO       ACCESS:     106572  HIT:     106572  MISS:          0
cpu0_DTLB PREFETCH  ACCESS:          0  HIT:          0  MISS:          0
cpu0_DTLB WRITEBACK ACCESS:          0  HIT:          0  MISS:          0
cpu0_DTLB TRANSLATION ACCESS:          0  HIT:          0  MISS:          0
cpu0_DTLB PREFETCH  REQUESTED:          0  ISSUED:          0  USEFUL:          0  USELESS:          0
cpu0_DTLB AVERAGE MISS LATENCY: 9.74488 cycles
cpu0_ITLB TOTAL     ACCESS:    3221965  HIT:    3221965  MISS:          0
cpu0_ITLB LOAD      ACCESS:    3221965  HIT:    3221965  MISS:          0
cpu0_ITLB RFO       ACCESS:          0  HIT:          0  MISS:          0
cpu0_ITLB PREFETCH  ACCESS:          0  HIT:          0  MISS:          0
cpu0_ITLB WRITEBACK ACCESS:          0  HIT:          0  MISS:          0
cpu0_ITLB TRANSLATION ACCESS:          0  HIT:          0  MISS:          0
cpu0_ITLB PREFETCH  REQUESTED:          0  ISSUED:          0  USEFUL:          0  USELESS:          0
cpu0_ITLB AVERAGE MISS LATENCY: -nan cycles
cpu0_STLB TOTAL     ACCESS:    1577767  HIT:    1575429  MISS:       2338
cpu0_STLB LOAD      ACCESS:    1577767  HIT:    1575429  MISS:       2338
cpu0_STLB RFO       ACCESS:          0  HIT:          0  MISS:          0
cpu0_STLB PREFETCH  ACCESS:          0  HIT:          0  MISS:          0
cpu0_STLB WRITEBACK ACCESS:          0  HIT:          0  MISS:          0
cpu0_STLB TRANSLATION ACCESS:          0  HIT:          0  MISS:          0
cpu0_STLB PREFETCH  REQUESTED:          0  ISSUED:          0  USEFUL:          0  USELESS:          0
cpu0_STLB AVERAGE MISS LATENCY: 219.204 cycles
cpu0_L1D TOTAL     ACCESS:    6559477  HIT:    4172445  MISS:    2387032
cpu0_L1D LOAD      ACCESS:    6450207  HIT:    4065352  MISS:    2384855
cpu0_L1D RFO       ACCESS:     106932  HIT:     106932  MISS:          0
cpu0_L1D PREFETCH  ACCESS:          0  HIT:          0  MISS:          0
cpu0_L1D WRITEBACK ACCESS:          0  HIT:          0  MISS:          0
cpu0_L1D TRANSLATION ACCESS:       2338  HIT:        161  MISS:       2177
cpu0_L1D PREFETCH  REQUESTED:          0  ISSUED:          0  USEFUL:          0  USELESS:          0
cpu0_L1D AVERAGE MISS LATENCY: 79.896 cycles
cpu0_L2C TOTAL     ACCESS:    2474991  HIT:     821409  MISS:    1653582
cpu0_L2C LOAD      ACCESS:    2384855  HIT:     731398  MISS:    1653457
cpu0_L2C RFO       ACCESS:          0  HIT:          0  MISS:          0
cpu0_L2C PREFETCH  ACCESS:          0  HIT:          0  MISS:          0
cpu0_L2C WRITEBACK ACCESS:      87959  HIT:      87940  MISS:         19
cpu0_L2C TRANSLATION ACCESS:       2177  HIT:       2071  MISS:        106
cpu0_L2C PREFETCH  REQUESTED:          0  ISSUED:          0  USEFUL:          0  USELESS:          0
cpu0_L2C AVERAGE MISS LATENCY: 99.1288 cycles
LLC TOTAL     ACCESS:    1741233  HIT:    1030912  MISS:     710321
LLC LOAD      ACCESS:    1653457  HIT:     943367  MISS:     710090
LLC RFO       ACCESS:          0  HIT:          0  MISS:          0
LLC PREFETCH  ACCESS:          0  HIT:          0  MISS:          0
LLC WRITEBACK ACCESS:      87670  HIT:      87439  MISS:        231
LLC TRANSLATION ACCESS:        106  HIT:        106  MISS:          0
LLC PREFETCH  REQUESTED:          0  ISSUED:          0  USEFUL:          0  USELESS:          0
LLC AVERAGE MISS LATENCY: 181.879 cycles

DRAM Statistics
 CHANNEL 0
 RQ ROW_BUFFER_HIT:      14850  ROW_BUFFER_MISS:     695213
 DBUS AVG_CONGESTED_CYCLE:    3.72844
 WQ ROW_BUFFER_HIT:      44419  ROW_BUFFER_MISS:      40044  FULL:          0


CPU 0 Branch Prediction Accuracy: 84.6764% MPKI: 31.4387 Average ROB Occupancy at Mispredict: 14.6403
Branch type MPKI
BRANCH_DIRECT_JUMP: 0
BRANCH_INDIRECT: 0
BRANCH_CONDITIONAL: 31.4387
BRANCH_DIRECT_CALL: 0
BRANCH_INDIRECT_CALL: 0
BRANCH_RETURN: 0

