
*** ChampSim Multicore Out-of-Order Simulator ***

Warmup Instructions: 30000000
Simulation Instructions: 30000000
Number of CPUs: 1
Off-chip DRAM Size: 4 GiB Channels: 1 Width: 64-bit Data Rate: 3200 MT/s

VirtualMemory physical capacity: 8588881920 num_ppages: 2096895
VirtualMemory page size: 4096 log2_page_size: 12

CPU 0 runs gap_traces/cc-6.trace.gz
CPU 0 Bimodal branch predictor
Basic BTB sets: 1024 ways: 8 indirect buffer size: 4096 RAS size: 64
Heartbeat CPU 0 instructions: 10000004 cycles: 2549822 heartbeat IPC: 3.92184 cumulative IPC: 3.92184 (Simulation time: 0 hr 0 min 47 sec) 
Heartbeat CPU 0 instructions: 20000001 cycles: 5242338 heartbeat IPC: 3.714 cumulative IPC: 3.81509 (Simulation time: 0 hr 1 min 45 sec) 
Heartbeat CPU 0 instructions: 30000004 cycles: 8005862 heartbeat IPC: 3.61857 cumulative IPC: 3.74725 (Simulation time: 0 hr 2 min 36 sec) 

Warmup complete CPU 0 instructions: 30000004 cycles: 8005862 (Simulation time: 0 hr 2 min 36 sec) 

Heartbeat CPU 0 instructions: 40000000 cycles: 60417744 heartbeat IPC: 0.190796 cumulative IPC: 0.190796 (Simulation time: 0 hr 4 min 11 sec) 
Heartbeat CPU 0 instructions: 50000000 cycles: 112457147 heartbeat IPC: 0.192162 cumulative IPC: 0.191477 (Simulation time: 0 hr 5 min 37 sec) 
Heartbeat CPU 0 instructions: 60000003 cycles: 163134889 heartbeat IPC: 0.197325 cumulative IPC: 0.193387 (Simulation time: 0 hr 6 min 54 sec) 
Finished CPU 0 instructions: 30000004 cycles: 155129028 cumulative IPC: 0.193387 (Simulation time: 0 hr 6 min 54 sec) 

ChampSim completed all CPUs

Region of Interest Statistics

CPU 0 cumulative IPC: 0.193387 instructions: 30000004 cycles: 155129028
cpu0_DTLB TOTAL     ACCESS:    7987868  HIT:    6410116  MISS:    1577752
cpu0_DTLB LOAD      ACCESS:    7881312  HIT:    6303560  MISS:    1577752
cpu0_DTLB RFO       ACCESS:     106556  HIT:     106556  MISS:          0
cpu0_DTLB PREFETCH  ACCESS:          0  HIT:          0  MISS:          0
cpu0_DTLB WRITEBACK ACCESS:          0  HIT:          0  MISS:          0
cpu0_DTLB TRANSLATION ACCESS:          0  HIT:          0  MISS:          0
cpu0_DTLB PREFETCH  REQUESTED:          0  ISSUED:          0  USEFUL:          0  USELESS:          0
cpu0_DTLB AVERAGE MISS LATENCY: 9.74911 cycles
cpu0_ITLB TOTAL     ACCESS:    3218891  HIT:    3218891  MISS:          0
cpu0_ITLB LOAD      ACCESS:    3218891  HIT:    3218891  MISS:          0
cpu0_ITLB RFO       ACCESS:          0  HIT:          0  MISS:          0
cpu0_ITLB PREFETCH  ACCESS:          0  HIT:          0  MISS:          0
cpu0_ITLB WRITEBACK ACCESS:          0  HIT:          0  MISS:          0
cpu0_ITLB TRANSLATION ACCESS:          0  HIT:          0  MISS:          0
cpu0_ITLB PREFETCH  REQUESTED:          0  ISSUED:          0  USEFUL:          0  USELESS:          0
cpu0_ITLB AVERAGE MISS LATENCY: -nan cycles
cpu0_STLB TOTAL     ACCESS:    1577752  HIT:    1575414  MISS:       2338
cpu0_STLB LOAD      ACCESS:    1577752  HIT:    1575414  MISS:       2338
cpu0_STLB RFO       ACCESS:          0  HIT:          0  MISS:          0
cpu0_STLB PREFETCH  ACCESS:          0  HIT:          0  MISS:          0
cpu0_STLB WRITEBACK ACCESS:          0  HIT:          0  MISS:          0
cpu0_STLB TRANSLATION ACCESS:          0  HIT:          0  MISS:          0
cpu0_STLB PREFETCH  REQUESTED:          0  ISSUED:          0  USEFUL:          0  USELESS:          0
cpu0_STLB AVERAGE MISS LATENCY: 222.47 cycles
cpu0_L1D TOTAL     ACCESS:    6584579  HIT:    4197552  MISS:    2387027
cpu0_L1D LOAD      ACCESS:    6475309  HIT:    4090460  MISS:    2384849
cpu0_L1D RFO       ACCESS:     106932  HIT:     106932  MISS:          0
cpu0_L1D PREFETCH  ACCESS:          0  HIT:          0  MISS:          0
cpu0_L1D WRITEBACK ACCESS:          0  HIT:          0  MISS:          0
cpu0_L1D TRANSLATION ACCESS:       2338  HIT:        160  MISS:       2178
cpu0_L1D PREFETCH  REQUESTED:          0  ISSUED:          0  USEFUL:          0  USELESS:          0
cpu0_L1D AVERAGE MISS LATENCY: 88.6 cycles
cpu0_L2C TOTAL     ACCESS:    2474986  HIT:     821426  MISS:    1653560
cpu0_L2C LOAD      ACCESS:    2384849  HIT:     731414  MISS:    1653435
cpu0_L2C RFO       ACCESS:          0  HIT:          0  MISS:          0
cpu0_L2C PREFETCH  ACCESS:          0  HIT:          0  MISS:          0
cpu0_L2C WRITEBACK ACCESS:      87959  HIT:      87940  MISS:         19
cpu0_L2C TRANSLATION ACCESS:       2178  HIT:       2072  MISS:        106
cpu0_L2C PREFETCH  REQUESTED:          0  ISSUED:          0  USEFUL:          0  USELESS:          0
cpu0_L2C AVERAGE MISS LATENCY: 111.697 cycles
LLC TOTAL     ACCESS:    1741210  HIT:     925564  MISS:     815646
LLC LOAD      ACCESS:    1653434  HIT:     851446  MISS:     801988
LLC RFO       ACCESS:          0  HIT:          0  MISS:          0
LLC PREFETCH  ACCESS:          0  HIT:          0  MISS:          0
LLC WRITEBACK ACCESS:      87670  HIT:      74059  MISS:      13611
LLC TRANSLATION ACCESS:        106  HIT:         59  MISS:         47
LLC PREFETCH  REQUESTED:          0  ISSUED:          0  USEFUL:          0  USELESS:          0
LLC AVERAGE MISS LATENCY: 183.871 cycles

DRAM Statistics
 CHANNEL 0
 RQ ROW_BUFFER_HIT:      19542  ROW_BUFFER_MISS:     782466
 DBUS AVG_CONGESTED_CYCLE:    3.76457
 WQ ROW_BUFFER_HIT:      46326  ROW_BUFFER_MISS:      36888  FULL:          0


CPU 0 Branch Prediction Accuracy: 84.6764% MPKI: 31.4387 Average ROB Occupancy at Mispredict: 14.642
Branch type MPKI
BRANCH_DIRECT_JUMP: 0
BRANCH_INDIRECT: 0
BRANCH_CONDITIONAL: 31.4387
BRANCH_DIRECT_CALL: 0
BRANCH_INDIRECT_CALL: 0
BRANCH_RETURN: 0

