
*** ChampSim Multicore Out-of-Order Simulator ***

Warmup Instructions: 30000000
Simulation Instructions: 30000000
Number of CPUs: 1
Off-chip DRAM Size: 4 GiB Channels: 1 Width: 64-bit Data Rate: 3200 MT/s

VirtualMemory physical capacity: 8588881920 num_ppages: 2096895
VirtualMemory page size: 4096 log2_page_size: 12

CPU 0 runs gap_traces/cc-6.trace.gz
CPU 0 Bimodal branch predictor
Basic BTB sets: 1024 ways: 8 indirect buffer size: 4096 RAS size: 64
Heartbeat CPU 0 instructions: 10000004 cycles: 2549842 heartbeat IPC: 3.92181 cumulative IPC: 3.92181 (Simulation time: 0 hr 0 min 16 sec) 
Heartbeat CPU 0 instructions: 20000002 cycles: 5242355 heartbeat IPC: 3.714 cumulative IPC: 3.81508 (Simulation time: 0 hr 0 min 33 sec) 
Heartbeat CPU 0 instructions: 30000004 cycles: 8005881 heartbeat IPC: 3.61857 cumulative IPC: 3.74725 (Simulation time: 0 hr 0 min 51 sec) 

Warmup complete CPU 0 instructions: 30000004 cycles: 8005881 (Simulation time: 0 hr 0 min 51 sec) 

Heartbeat CPU 0 instructions: 40000000 cycles: 59639546 heartbeat IPC: 0.193672 cumulative IPC: 0.193672 (Simulation time: 0 hr 1 min 31 sec) 
Heartbeat CPU 0 instructions: 50000000 cycles: 110902352 heartbeat IPC: 0.195073 cumulative IPC: 0.19437 (Simulation time: 0 hr 2 min 14 sec) 
Heartbeat CPU 0 instructions: 60000003 cycles: 160703439 heartbeat IPC: 0.200799 cumulative IPC: 0.196467 (Simulation time: 0 hr 2 min 54 sec) 
Finished CPU 0 instructions: 30000004 cycles: 152697559 cumulative IPC: 0.196467 (Simulation time: 0 hr 2 min 54 sec) 

ChampSim completed all CPUs

Region of Interest Statistics

CPU 0 cumulative IPC: 0.196467 instructions: 30000004 cycles: 152697559
cpu0_DTLB TOTAL     ACCESS:    7972108  HIT:    6394368  MISS:    1577740
cpu0_DTLB LOAD      ACCESS:    7865593  HIT:    6287853  MISS:    1577740
cpu0_DTLB RFO       ACCESS:     106515  HIT:     106515  MISS:          0
cpu0_DTLB PREFETCH  ACCESS:          0  HIT:          0  MISS:          0
cpu0_DTLB WRITEBACK ACCESS:          0  HIT:          0  MISS:          0
cpu0_DTLB TRANSLATION ACCESS:          0  HIT:          0  MISS:          0
cpu0_DTLB PREFETCH  REQUESTED:          0  ISSUED:          0  USEFUL:          0  USELESS:          0
cpu0_DTLB AVERAGE MISS LATENCY: 9.74465 cycles
cpu0_ITLB TOTAL     ACCESS:    3234550  HIT:    3234550  MISS:          0
cpu0_ITLB LOAD      ACCESS:    3234550  HIT:    3234550  MISS:          0
cpu0_ITLB RFO       ACCESS:          0  HIT:          0  MISS:          0
cpu0_ITLB PREFETCH  ACCESS:          0  HIT:          0  MISS:          0
cpu0_ITLB WRITEBACK ACCESS:          0  HIT:          0  MISS:          0
cpu0_ITLB TRANSLATION ACCESS:          0  HIT:          0  MISS:          0
cpu0_ITLB PREFETCH  REQUESTED:          0  ISSUED:          0  USEFUL:          0  USELESS:          0
cpu0_ITLB AVERAGE MISS LATENCY: -nan cycles
cpu0_STLB TOTAL     ACCESS:    1577740  HIT:    1575402  MISS:       2338
cpu0_STLB LOAD      ACCESS:    1577740  HIT:    1575402  MISS:       2338
cpu0_STLB RFO       ACCESS:          0  HIT:          0  MISS:          0
cpu0_STLB PREFETCH  ACCESS:          0  HIT:          0  MISS:          0
cpu0_STLB WRITEBACK ACCESS:          0  HIT:          0  MISS:          0
cpu0_STLB TRANSLATION ACCESS:          0  HIT:          0  MISS:          0
cpu0_STLB PREFETCH  REQUESTED:          0  ISSUED:          0  USEFUL:          0  USELESS:          0
cpu0_STLB AVERAGE MISS LATENCY: 219.218 cycles
cpu0_L1D TOTAL     ACCESS:    6566803  HIT:    4179788  MISS:    2387015
cpu0_L1D LOAD      ACCESS:    6457533  HIT:    4072698  MISS:    2384835
cpu0_L1D RFO       ACCESS:     106932  HIT:     106932  MISS:          0
cpu0_L1D PREFETCH  ACCESS:          0  HIT:          0  MISS:          0
cpu0_L1D WRITEBACK ACCESS:          0  HIT:          0  MISS:          0
cpu0_L1D TRANSLATION ACCESS:       2338  HIT:        158  MISS:       2180
cpu0_L1D PREFETCH  REQUESTED:          0  ISSUED:          0  USEFUL:          0  USELESS:          0
cpu0_L1D AVERAGE MISS LATENCY: 106.768 cycles
cpu0_L2C TOTAL     ACCESS:    2474974  HIT:     821418  MISS:    1653556
cpu0_L2C LOAD      ACCESS:    2384835  HIT:     731404  MISS:    1653431
cpu0_L2C RFO       ACCESS:          0  HIT:          0  MISS:          0
cpu0_L2C PREFETCH  ACCESS:          0  HIT:          0  MISS:          0
cpu0_L2C WRITEBACK ACCESS:      87959  HIT:      87940  MISS:         19
cpu0_L2C TRANSLATION ACCESS:       2180  HIT:       2074  MISS:        106
cpu0_L2C PREFETCH  REQUESTED:          0  ISSUED:          0  USEFUL:          0  USELESS:          0
cpu0_L2C AVERAGE MISS LATENCY: 137.906 cycles
LLC TOTAL     ACCESS:    1741207  HIT:     800446  MISS:     940761
LLC LOAD      ACCESS:    1653431  HIT:     758687  MISS:     894744
LLC RFO       ACCESS:          0  HIT:          0  MISS:          0
LLC PREFETCH  ACCESS:          0  HIT:          0  MISS:          0
LLC WRITEBACK ACCESS:      87670  HIT:      41653  MISS:      46017
LLC TRANSLATION ACCESS:        106  HIT:        106  MISS:          0
LLC PREFETCH  REQUESTED:          0  ISSUED:          0  USEFUL:          0  USELESS:          0
LLC AVERAGE MISS LATENCY: 205.483 cycles

DRAM Statistics
 CHANNEL 0
 RQ ROW_BUFFER_HIT:      67262  ROW_BUFFER_MISS:     827397
 DBUS AVG_CONGESTED_CYCLE:    3.88816
 WQ ROW_BUFFER_HIT:      26117  ROW_BUFFER_MISS:      19871  FULL:          0


CPU 0 Branch Prediction Accuracy: 84.6764% MPKI: 31.4387 Average ROB Occupancy at Mispredict: 14.6418
Branch type MPKI
BRANCH_DIRECT_JUMP: 0
BRANCH_INDIRECT: 0
BRANCH_CONDITIONAL: 31.4387
BRANCH_DIRECT_CALL: 0
BRANCH_INDIRECT_CALL: 0
BRANCH_RETURN: 0

