
*** ChampSim Multicore Out-of-Order Simulator ***

Warmup Instructions: 30000000
Simulation Instructions: 30000000
Number of CPUs: 1
Off-chip DRAM Size: 4 GiB Channels: 1 Width: 64-bit Data Rate: 3200 MT/s

VirtualMemory physical capacity: 8588881920 num_ppages: 2096895
VirtualMemory page size: 4096 log2_page_size: 12

CPU 0 runs gap_traces/cc-6.trace.gz
CPU 0 Bimodal branch predictor
Basic BTB sets: 1024 ways: 8 indirect buffer size: 4096 RAS size: 64
Heartbeat CPU 0 instructions: 10000004 cycles: 2549831 heartbeat IPC: 3.92183 cumulative IPC: 3.92183 (Simulation time: 0 hr 0 min 41 sec) 
Heartbeat CPU 0 instructions: 20000002 cycles: 5242340 heartbeat IPC: 3.71401 cumulative IPC: 3.81509 (Simulation time: 0 hr 1 min 22 sec) 
Heartbeat CPU 0 instructions: 30000004 cycles: 8005865 heartbeat IPC: 3.61857 cumulative IPC: 3.74725 (Simulation time: 0 hr 2 min 3 sec) 

Warmup complete CPU 0 instructions: 30000004 cycles: 8005865 (Simulation time: 0 hr 2 min 3 sec) 

Heartbeat CPU 0 instructions: 40000000 cycles: 55418085 heartbeat IPC: 0.210916 cumulative IPC: 0.210916 (Simulation time: 0 hr 3 min 3 sec) 
Heartbeat CPU 0 instructions: 50000000 cycles: 102341245 heartbeat IPC: 0.213114 cumulative IPC: 0.212009 (Simulation time: 0 hr 4 min 4 sec) 
Heartbeat CPU 0 instructions: 60000003 cycles: 147964141 heartbeat IPC: 0.219188 cumulative IPC: 0.21435 (Simulation time: 0 hr 5 min 6 sec) 
Finished CPU 0 instructions: 30000004 cycles: 139958277 cumulative IPC: 0.21435 (Simulation time: 0 hr 5 min 6 sec) 

ChampSim completed all CPUs

Region of Interest Statistics

CPU 0 cumulative IPC: 0.21435 instructions: 30000004 cycles: 139958277
cpu0_DTLB TOTAL     ACCESS:    7958148  HIT:    6380410  MISS:    1577738
cpu0_DTLB LOAD      ACCESS:    7851575  HIT:    6273837  MISS:    1577738
cpu0_DTLB RFO       ACCESS:     106573  HIT:     106573  MISS:          0
cpu0_DTLB PREFETCH  ACCESS:          0  HIT:          0  MISS:          0
cpu0_DTLB WRITEBACK ACCESS:          0  HIT:          0  MISS:          0
cpu0_DTLB TRANSLATION ACCESS:          0  HIT:          0  MISS:          0
cpu0_DTLB PREFETCH  REQUESTED:          0  ISSUED:          0  USEFUL:          0  USELESS:          0
cpu0_DTLB AVERAGE MISS LATENCY: 9.74543 cycles
cpu0_ITLB TOTAL     ACCESS:    3225396  HIT:    3225396  MISS:          0
cpu0_ITLB LOAD      ACCESS:    3225396  HIT:    3225396  MISS:          0
cpu0_ITLB RFO       ACCESS:          0  HIT:          0  MISS:          0
cpu0_ITLB PREFETCH  ACCESS:          0  HIT:          0  MISS:          0
cpu0_ITLB WRITEBACK ACCESS:          0  HIT:          0  MISS:          0
cpu0_ITLB TRANSLATION ACCESS:          0  HIT:          0  MISS:          0
cpu0_ITLB PREFETCH  REQUESTED:          0  ISSUED:          0  USEFUL:          0  USELESS:          0
cpu0_ITLB AVERAGE MISS LATENCY: -nan cycles
cpu0_STLB TOTAL     ACCESS:    1577738  HIT:    1575400  MISS:       2338
cpu0_STLB LOAD      ACCESS:    1577738  HIT:    1575400  MISS:       2338
cpu0_STLB RFO       ACCESS:          0  HIT:          0  MISS:          0
cpu0_STLB PREFETCH  ACCESS:          0  HIT:          0  MISS:          0
cpu0_STLB WRITEBACK ACCESS:          0  HIT:          0  MISS:          0
cpu0_STLB TRANSLATION ACCESS:          0  HIT:          0  MISS:          0
cpu0_STLB PREFETCH  REQUESTED:          0  ISSUED:          0  USEFUL:          0  USELESS:          0
cpu0_STLB AVERAGE MISS LATENCY: 219.204 cycles
cpu0_L1D TOTAL     ACCESS:    6535242  HIT:    4148198  MISS:    2387044
cpu0_L1D LOAD      ACCESS:    6425972  HIT:    4041105  MISS:    2384867
cpu0_L1D RFO       ACCESS:     106932  HIT:     106932  MISS:          0
cpu0_L1D PREFETCH  ACCESS:          0  HIT:          0  MISS:          0
cpu0_L1D WRITEBACK ACCESS:          0  HIT:          0  MISS:          0
cpu0_L1D TRANSLATION ACCESS:       2338  HIT:        161  MISS:       2177
cpu0_L1D PREFETCH  REQUESTED:          0  ISSUED:          0  USEFUL:          0  USELESS:          0
cpu0_L1D AVERAGE MISS LATENCY: 71.9514 cycles
cpu0_L2C TOTAL     ACCESS:    2475003  HIT:     821418  MISS:    1653585
cpu0_L2C LOAD      ACCESS:    2384867  HIT:     731407  MISS:    1653460
cpu0_L2C RFO       ACCESS:          0  HIT:          0  MISS:          0
cpu0_L2C PREFETCH  ACCESS:          0  HIT:          0  MISS:          0
cpu0_L2C WRITEBACK ACCESS:      87959  HIT:      87940  MISS:         19
cpu0_L2C TRANSLATION ACCESS:       2177  HIT:       2071  MISS:        106
cpu0_L2C PREFETCH  REQUESTED:          0  ISSUED:          0  USEFUL:          0  USELESS:          0
cpu0_L2C AVERAGE MISS LATENCY: 87.6559 cycles
LLC TOTAL     ACCESS:    1741236  HIT:    1120784  MISS:     620452
LLC LOAD      ACCESS:    1653460  HIT:    1033196  MISS:     620264
LLC RFO       ACCESS:          0  HIT:          0  MISS:          0
LLC PREFETCH  ACCESS:          0  HIT:          0  MISS:          0
LLC WRITEBACK ACCESS:      87670  HIT:      87482  MISS:        188
LLC TRANSLATION ACCESS:        106  HIT:        106  MISS:          0
LLC PREFETCH  REQUESTED:          0  ISSUED:          0  USEFUL:          0  USELESS:          0
LLC AVERAGE MISS LATENCY: 177.647 cycles

DRAM Statistics
 CHANNEL 0
 RQ ROW_BUFFER_HIT:      12343  ROW_BUFFER_MISS:     607917
 DBUS AVG_CONGESTED_CYCLE:    3.68789
 WQ ROW_BUFFER_HIT:      38126  ROW_BUFFER_MISS:      37896  FULL:          0


CPU 0 Branch Prediction Accuracy: 84.6764% MPKI: 31.4387 Average ROB Occupancy at Mispredict: 14.6396
Branch type MPKI
BRANCH_DIRECT_JUMP: 0
BRANCH_INDIRECT: 0
BRANCH_CONDITIONAL: 31.4387
BRANCH_DIRECT_CALL: 0
BRANCH_INDIRECT_CALL: 0
BRANCH_RETURN: 0

