
*** ChampSim Multicore Out-of-Order Simulator ***

Warmup Instructions: 30000000
Simulation Instructions: 30000000
Number of CPUs: 1
Off-chip DRAM Size: 4 GiB Channels: 1 Width: 64-bit Data Rate: 3200 MT/s

VirtualMemory physical capacity: 8588881920 num_ppages: 2096895
VirtualMemory page size: 4096 log2_page_size: 12

CPU 0 runs gap_traces/cc-6.trace.gz
CPU 0 Bimodal branch predictor
Basic BTB sets: 1024 ways: 8 indirect buffer size: 4096 RAS size: 64
Heartbeat CPU 0 instructions: 10000004 cycles: 2549828 heartbeat IPC: 3.92183 cumulative IPC: 3.92183 (Simulation time: 0 hr 0 min 14 sec) 
Heartbeat CPU 0 instructions: 20000002 cycles: 5242351 heartbeat IPC: 3.71399 cumulative IPC: 3.81508 (Simulation time: 0 hr 0 min 30 sec) 
Heartbeat CPU 0 instructions: 30000004 cycles: 8005870 heartbeat IPC: 3.61858 cumulative IPC: 3.74725 (Simulation time: 0 hr 0 min 47 sec) 

Warmup complete CPU 0 instructions: 30000004 cycles: 8005870 (Simulation time: 0 hr 0 min 47 sec) 

Heartbeat CPU 0 instructions: 40000000 cycles: 62746290 heartbeat IPC: 0.18268 cumulative IPC: 0.18268 (Simulation time: 0 hr 1 min 29 sec) 
Heartbeat CPU 0 instructions: 50000000 cycles: 117200197 heartbeat IPC: 0.183642 cumulative IPC: 0.18316 (Simulation time: 0 hr 2 min 12 sec) 
Heartbeat CPU 0 instructions: 60000003 cycles: 170312954 heartbeat IPC: 0.188279 cumulative IPC: 0.184835 (Simulation time: 0 hr 2 min 55 sec) 
Finished CPU 0 instructions: 30000004 cycles: 162307085 cumulative IPC: 0.184835 (Simulation time: 0 hr 2 min 55 sec) 

ChampSim completed all CPUs

Region of Interest Statistics

CPU 0 cumulative IPC: 0.184835 instructions: 30000004 cycles: 162307085
cpu0_DTLB TOTAL     ACCESS:    8000056  HIT:    6422302  MISS:    1577754
cpu0_DTLB LOAD      ACCESS:    7893497  HIT:    6315743  MISS:    1577754
cpu0_DTLB RFO       ACCESS:     106559  HIT:     106559  MISS:          0
cpu0_DTLB PREFETCH  ACCESS:          0  HIT:          0  MISS:          0
cpu0_DTLB WRITEBACK ACCESS:          0  HIT:          0  MISS:          0
cpu0_DTLB TRANSLATION ACCESS:          0  HIT:          0  MISS:          0
cpu0_DTLB PREFETCH  REQUESTED:          0  ISSUED:          0  USEFUL:          0  USELESS:          0
cpu0_DTLB AVERAGE MISS LATENCY: 9.74679 cycles
cpu0_ITLB TOTAL     ACCESS:    3216303  HIT:    3216303  MISS:          0
cpu0_ITLB LOAD      ACCESS:    3216303  HIT:    3216303  MISS:          0
cpu0_ITLB RFO       ACCESS:          0  HIT:          0  MISS:          0
cpu0_ITLB PREFETCH  ACCESS:          0  HIT:          0  MISS:          0
cpu0_ITLB WRITEBACK ACCESS:          0  HIT:          0  MISS:          0
cpu0_ITLB TRANSLATION ACCESS:          0  HIT:          0  MISS:          0
cpu0_ITLB PREFETCH  REQUESTED:          0  ISSUED:          0  USEFUL:          0  USELESS:          0
cpu0_ITLB AVERAGE MISS LATENCY: -nan cycles
cpu0_STLB TOTAL     ACCESS:    1577754  HIT:    1575416  MISS:       2338
cpu0_STLB LOAD      ACCESS:    1577754  HIT:    1575416  MISS:       2338
cpu0_STLB RFO       ACCESS:          0  HIT:          0  MISS:          0
cpu0_STLB PREFETCH  ACCESS:          0  HIT:          0  MISS:          0
cpu0_STLB WRITEBACK ACCESS:          0  HIT:          0  MISS:          0
cpu0_STLB TRANSLATION ACCESS:          0  HIT:          0  MISS:          0
cpu0_STLB PREFETCH  REQUESTED:          0  ISSUED:          0  USEFUL:          0  USELESS:          0
cpu0_STLB AVERAGE MISS LATENCY: 221.216 cycles
cpu0_L1D TOTAL     ACCESS:    6603872  HIT:    4216864  MISS:    2387008
cpu0_L1D LOAD      ACCESS:    6494602  HIT:    4109771  MISS:    2384831
cpu0_L1D RFO       ACCESS:     106932  HIT:     106932  MISS:          0
cpu0_L1D PREFETCH  ACCESS:          0  HIT:          0  MISS:          0
cpu0_L1D WRITEBACK ACCESS:          0  HIT:          0  MISS:          0
cpu0_L1D TRANSLATION ACCESS:       2338  HIT:        161  MISS:       2177
cpu0_L1D PREFETCH  REQUESTED:          0  ISSUED:          0  USEFUL:          0  USELESS:          0
cpu0_L1D AVERAGE MISS LATENCY: 96.6912 cycles
cpu0_L2C TOTAL     ACCESS:    2474967  HIT:     821392  MISS:    1653575
cpu0_L2C LOAD      ACCESS:    2384831  HIT:     731381  MISS:    1653450
cpu0_L2C RFO       ACCESS:          0  HIT:          0  MISS:          0
cpu0_L2C PREFETCH  ACCESS:          0  HIT:          0  MISS:          0
cpu0_L2C WRITEBACK ACCESS:      87959  HIT:      87940  MISS:         19
cpu0_L2C TRANSLATION ACCESS:       2177  HIT:       2071  MISS:        106
cpu0_L2C PREFETCH  REQUESTED:          0  ISSUED:          0  USEFUL:          0  USELESS:          0
cpu0_L2C AVERAGE MISS LATENCY: 123.378 cycles
LLC TOTAL     ACCESS:    1741226  HIT:     841475  MISS:     899751
LLC LOAD      ACCESS:    1653450  HIT:     766531  MISS:     886919
LLC RFO       ACCESS:          0  HIT:          0  MISS:          0
LLC PREFETCH  ACCESS:          0  HIT:          0  MISS:          0
LLC WRITEBACK ACCESS:      87670  HIT:      74867  MISS:      12803
LLC TRANSLATION ACCESS:        106  HIT:         77  MISS:         29
LLC PREFETCH  REQUESTED:          0  ISSUED:          0  USEFUL:          0  USELESS:          0
LLC AVERAGE MISS LATENCY: 188.151 cycles

DRAM Statistics
 CHANNEL 0
 RQ ROW_BUFFER_HIT:      23036  ROW_BUFFER_MISS:     863860
 DBUS AVG_CONGESTED_CYCLE:    3.78637
 WQ ROW_BUFFER_HIT:      49068  ROW_BUFFER_MISS:      36462  FULL:          0


CPU 0 Branch Prediction Accuracy: 84.6764% MPKI: 31.4387 Average ROB Occupancy at Mispredict: 14.6427
Branch type MPKI
BRANCH_DIRECT_JUMP: 0
BRANCH_INDIRECT: 0
BRANCH_CONDITIONAL: 31.4387
BRANCH_DIRECT_CALL: 0
BRANCH_INDIRECT_CALL: 0
BRANCH_RETURN: 0

