
*** ChampSim Multicore Out-of-Order Simulator ***

Warmup Instructions: 30000000
Simulation Instructions: 30000000
Number of CPUs: 1
Off-chip DRAM Size: 4 GiB Channels: 1 Width: 64-bit Data Rate: 3200 MT/s

VirtualMemory physical capacity: 8588881920 num_ppages: 2096895
VirtualMemory page size: 4096 log2_page_size: 12

CPU 0 runs gap_traces/cc-6.trace.gz
CPU 0 Bimodal branch predictor
Basic BTB sets: 1024 ways: 8 indirect buffer size: 4096 RAS size: 64
Heartbeat CPU 0 instructions: 10000004 cycles: 2549832 heartbeat IPC: 3.92183 cumulative IPC: 3.92183 (Simulation time: 0 hr 0 min 14 sec) 
Heartbeat CPU 0 instructions: 20000002 cycles: 5242348 heartbeat IPC: 3.714 cumulative IPC: 3.81508 (Simulation time: 0 hr 0 min 31 sec) 
Heartbeat CPU 0 instructions: 30000004 cycles: 8005875 heartbeat IPC: 3.61857 cumulative IPC: 3.74725 (Simulation time: 0 hr 0 min 47 sec) 

Warmup complete CPU 0 instructions: 30000004 cycles: 8005875 (Simulation time: 0 hr 0 min 47 sec) 

Heartbeat CPU 0 instructions: 40000000 cycles: 58534860 heartbeat IPC: 0.197906 cumulative IPC: 0.197906 (Simulation time: 0 hr 1 min 27 sec) 
Heartbeat CPU 0 instructions: 50000000 cycles: 108737815 heartbeat IPC: 0.199191 cumulative IPC: 0.198547 (Simulation time: 0 hr 2 min 7 sec) 
Heartbeat CPU 0 instructions: 60000003 cycles: 157701666 heartbeat IPC: 0.204232 cumulative IPC: 0.200406 (Simulation time: 0 hr 2 min 48 sec) 
Finished CPU 0 instructions: 30000004 cycles: 149695792 cumulative IPC: 0.200406 (Simulation time: 0 hr 2 min 48 sec) 

ChampSim completed all CPUs

Region of Interest Statistics

CPU 0 cumulative IPC: 0.200406 instructions: 30000004 cycles: 149695792
cpu0_DTLB TOTAL     ACCESS:    7977217  HIT:    6399463  MISS:    1577754
cpu0_DTLB LOAD      ACCESS:    7870648  HIT:    6292894  MISS:    1577754
cpu0_DTLB RFO       ACCESS:     106569  HIT:     106569  MISS:          0
cpu0_DTLB PREFETCH  ACCESS:          0  HIT:          0  MISS:          0
cpu0_DTLB WRITEBACK ACCESS:          0  HIT:          0  MISS:          0
cpu0_DTLB TRANSLATION ACCESS:          0  HIT:          0  MISS:          0
cpu0_DTLB PREFETCH  REQUESTED:          0  ISSUED:          0  USEFUL:          0  USELESS:          0
cpu0_DTLB AVERAGE MISS LATENCY: 9.74497 cycles
cpu0_ITLB TOTAL     ACCESS:    3221357  HIT:    3221357  MISS:          0
cpu0_ITLB LOAD      ACCESS:    3221357  HIT:    3221357  MISS:          0
cpu0_ITLB RFO       ACCESS:          0  HIT:          0  MISS:          0
cpu0_ITLB PREFETCH  ACCESS:          0  HIT:          0  MISS:          0
cpu0_ITLB WRITEBACK ACCESS:          0  HIT:          0  MISS:          0
cpu0_ITLB TRANSLATION ACCESS:          0  HIT:          0  MISS:          0
cpu0_ITLB PREFETCH  REQUESTED:          0  ISSUED:          0  USEFUL:          0  USELESS:          0
cpu0_ITLB AVERAGE MISS LATENCY: -nan cycles
cpu0_STLB TOTAL     ACCESS:    1577754  HIT:    1575416  MISS:       2338
cpu0_STLB LOAD      ACCESS:    1577754  HIT:    1575416  MISS:       2338
cpu0_STLB RFO       ACCESS:          0  HIT:          0  MISS:          0
cpu0_STLB PREFETCH  ACCESS:          0  HIT:          0  MISS:          0
cpu0_STLB WRITEBACK ACCESS:          0  HIT:          0  MISS:          0
cpu0_STLB TRANSLATION ACCESS:          0  HIT:          0  MISS:          0
cpu0_STLB PREFETCH  REQUESTED:          0  ISSUED:          0  USEFUL:          0  USELESS:          0
cpu0_STLB AVERAGE MISS LATENCY: 219.343 cycles
cpu0_L1D TOTAL     ACCESS:    6565457  HIT:    4178433  MISS:    2387024
cpu0_L1D LOAD      ACCESS:    6456187  HIT:    4071340  MISS:    2384847
cpu0_L1D RFO       ACCESS:     106932  HIT:     106932  MISS:          0
cpu0_L1D PREFETCH  ACCESS:          0  HIT:          0  MISS:          0
cpu0_L1D WRITEBACK ACCESS:          0  HIT:          0  MISS:          0
cpu0_L1D TRANSLATION ACCESS:       2338  HIT:        161  MISS:       2177
cpu0_L1D PREFETCH  REQUESTED:          0  ISSUED:          0  USEFUL:          0  USELESS:          0
cpu0_L1D AVERAGE MISS LATENCY: 81.9541 cycles
cpu0_L2C TOTAL     ACCESS:    2474983  HIT:     821405  MISS:    1653578
cpu0_L2C LOAD      ACCESS:    2384847  HIT:     731394  MISS:    1653453
cpu0_L2C RFO       ACCESS:          0  HIT:          0  MISS:          0
cpu0_L2C PREFETCH  ACCESS:          0  HIT:          0  MISS:          0
cpu0_L2C WRITEBACK ACCESS:      87959  HIT:      87940  MISS:         19
cpu0_L2C TRANSLATION ACCESS:       2177  HIT:       2071  MISS:        106
cpu0_L2C PREFETCH  REQUESTED:          0  ISSUED:          0  USEFUL:          0  USELESS:          0
cpu0_L2C AVERAGE MISS LATENCY: 102.1 cycles
LLC TOTAL     ACCESS:    1741229  HIT:    1008587  MISS:     732642
LLC LOAD      ACCESS:    1653453  HIT:     921073  MISS:     732380
LLC RFO       ACCESS:          0  HIT:          0  MISS:          0
LLC PREFETCH  ACCESS:          0  HIT:          0  MISS:          0
LLC WRITEBACK ACCESS:      87670  HIT:      87410  MISS:        260
LLC TRANSLATION ACCESS:        106  HIT:        104  MISS:          2
LLC PREFETCH  REQUESTED:          0  ISSUED:          0  USEFUL:          0  USELESS:          0
LLC AVERAGE MISS LATENCY: 183.044 cycles

DRAM Statistics
 CHANNEL 0
 RQ ROW_BUFFER_HIT:      15508  ROW_BUFFER_MISS:     716851
 DBUS AVG_CONGESTED_CYCLE:    3.73874
 WQ ROW_BUFFER_HIT:      44840  ROW_BUFFER_MISS:      40366  FULL:          0


CPU 0 Branch Prediction Accuracy: 84.6764% MPKI: 31.4387 Average ROB Occupancy at Mispredict: 14.6407
Branch type MPKI
BRANCH_DIRECT_JUMP: 0
BRANCH_INDIRECT: 0
BRANCH_CONDITIONAL: 31.4387
BRANCH_DIRECT_CALL: 0
BRANCH_INDIRECT_CALL: 0
BRANCH_RETURN: 0

