
*** ChampSim Multicore Out-of-Order Simulator ***

Warmup Instructions: 30000000
Simulation Instructions: 30000000
Number of CPUs: 1
Off-chip DRAM Size: 4 GiB Channels: 1 Width: 64-bit Data Rate: 3200 MT/s

VirtualMemory physical capacity: 8588881920 num_ppages: 2096895
VirtualMemory page size: 4096 log2_page_size: 12

CPU 0 runs gap_traces/cc-6.trace.gz
CPU 0 Bimodal branch predictor
Basic BTB sets: 1024 ways: 8 indirect buffer size: 4096 RAS size: 64
Heartbeat CPU 0 instructions: 10000004 cycles: 2549836 heartbeat IPC: 3.92182 cumulative IPC: 3.92182 (Simulation time: 0 hr 0 min 34 sec) 
Heartbeat CPU 0 instructions: 20000001 cycles: 5242338 heartbeat IPC: 3.71402 cumulative IPC: 3.81509 (Simulation time: 0 hr 1 min 14 sec) 
Heartbeat CPU 0 instructions: 30000004 cycles: 8005860 heartbeat IPC: 3.61857 cumulative IPC: 3.74726 (Simulation time: 0 hr 1 min 54 sec) 

Warmup complete CPU 0 instructions: 30000004 cycles: 8005860 (Simulation time: 0 hr 1 min 54 sec) 

Heartbeat CPU 0 instructions: 40000000 cycles: 65525668 heartbeat IPC: 0.173853 cumulative IPC: 0.173853 (Simulation time: 0 hr 3 min 42 sec) 
Heartbeat CPU 0 instructions: 50000000 cycles: 122741663 heartbeat IPC: 0.174776 cumulative IPC: 0.174313 (Simulation time: 0 hr 5 min 38 sec) 
Heartbeat CPU 0 instructions: 60000003 cycles: 178558306 heartbeat IPC: 0.179158 cumulative IPC: 0.175899 (Simulation time: 0 hr 6 min 58 sec) 
Finished CPU 0 instructions: 30000004 cycles: 170552447 cumulative IPC: 0.175899 (Simulation time: 0 hr 6 min 58 sec) 

ChampSim completed all CPUs

Region of Interest Statistics

CPU 0 cumulative IPC: 0.175899 instructions: 30000004 cycles: 170552447
cpu0_DTLB TOTAL     ACCESS:    8012561  HIT:    6434783  MISS:    1577778
cpu0_DTLB LOAD      ACCESS:    7906030  HIT:    6328252  MISS:    1577778
cpu0_DTLB RFO       ACCESS:     106531  HIT:     106531  MISS:          0
cpu0_DTLB PREFETCH  ACCESS:          0  HIT:          0  MISS:          0
cpu0_DTLB WRITEBACK ACCESS:          0  HIT:          0  MISS:          0
cpu0_DTLB TRANSLATION ACCESS:          0  HIT:          0  MISS:          0
cpu0_DTLB PREFETCH  REQUESTED:          0  ISSUED:          0  USEFUL:          0  USELESS:          0
cpu0_DTLB AVERAGE MISS LATENCY: 9.7462 cycles
cpu0_ITLB TOTAL     ACCESS:    3214585  HIT:    3214585  MISS:          0
cpu0_ITLB LOAD      ACCESS:    3214585  HIT:    3214585  MISS:          0
cpu0_ITLB RFO       ACCESS:          0  HIT:          0  MISS:          0
cpu0_ITLB PREFETCH  ACCESS:          0  HIT:          0  MISS:          0
cpu0_ITLB WRITEBACK ACCESS:          0  HIT:          0  MISS:          0
cpu0_ITLB TRANSLATION ACCESS:          0  HIT:          0  MISS:          0
cpu0_ITLB PREFETCH  REQUESTED:          0  ISSUED:          0  USEFUL:          0  USELESS:          0
cpu0_ITLB AVERAGE MISS LATENCY: nan cycles
cpu0_STLB TOTAL     ACCESS:    1577778  HIT:    1575440  MISS:       2338
cpu0_STLB LOAD      ACCESS:    1577778  HIT:    1575440  MISS:       2338
cpu0_STLB RFO       ACCESS:          0  HIT:          0  MISS:          0
cpu0_STLB PREFETCH  ACCESS:          0  HIT:          0  MISS:          0
cpu0_STLB WRITEBACK ACCESS:          0  HIT:          0  MISS:          0
cpu0_STLB TRANSLATION ACCESS:          0  HIT:          0  MISS:          0
cpu0_STLB PREFETCH  REQUESTED:          0  ISSUED:          0  USEFUL:          0  USELESS:          0
cpu0_STLB AVERAGE MISS LATENCY: 221.189 cycles
cpu0_L1D TOTAL     ACCESS:    6626404  HIT:    4239383  MISS:    2387021
cpu0_L1D LOAD      ACCESS:    6517134  HIT:    4132289  MISS:    2384845
cpu0_L1D RFO       ACCESS:     106932  HIT:     106932  MISS:          0
cpu0_L1D PREFETCH  ACCESS:          0  HIT:          0  MISS:          0
cpu0_L1D WRITEBACK ACCESS:          0  HIT:          0  MISS:          0
cpu0_L1D TRANSLATION ACCESS:       2338  HIT:        162  MISS:       2176
cpu0_L1D PREFETCH  REQUESTED:          0  ISSUED:          0  USEFUL:          0  USELESS:          0
cpu0_L1D AVERAGE MISS LATENCY: 107.533 cycles
cpu0_L2C TOTAL     ACCESS:    2474980  HIT:     819043  MISS:    1655937
cpu0_L2C LOAD      ACCESS:    2384845  HIT:     729046  MISS:    1655799
cpu0_L2C RFO       ACCESS:          0  HIT:          0  MISS:          0
cpu0_L2C PREFETCH  ACCESS:          0  HIT:          0  MISS:          0
cpu0_L2C WRITEBACK ACCESS:      87959  HIT:      87940  MISS:         19
cpu0_L2C TRANSLATION ACCESS:       2176  HIT:       2057  MISS:        119
cpu0_L2C PREFETCH  REQUESTED:          0  ISSUED:          0  USEFUL:          0  USELESS:          0
cpu0_L2C AVERAGE MISS LATENCY: 138.832 cycles
LLC TOTAL     ACCESS:    1743618  HIT:     728889  MISS:    1014729
LLC LOAD      ACCESS:    1655799  HIT:     660443  MISS:     995356
LLC RFO       ACCESS:          0  HIT:          0  MISS:          0
LLC PREFETCH  ACCESS:          0  HIT:          0  MISS:          0
LLC WRITEBACK ACCESS:      87700  HIT:      68354  MISS:      19346
LLC TRANSLATION ACCESS:        119  HIT:         92  MISS:         27
LLC PREFETCH  REQUESTED:          0  ISSUED:          0  USEFUL:          0  USELESS:          0
LLC AVERAGE MISS LATENCY: 192.29 cycles

DRAM Statistics
 CHANNEL 0
 RQ ROW_BUFFER_HIT:      32413  ROW_BUFFER_MISS:     962922
 DBUS AVG_CONGESTED_CYCLE:    3.81228
 WQ ROW_BUFFER_HIT:      52696  ROW_BUFFER_MISS:      32382  FULL:          0


CPU 0 Branch Prediction Accuracy: 84.6764% MPKI: 31.4387 Average ROB Occupancy at Mispredict: 14.644
Branch type MPKI
BRANCH_DIRECT_JUMP: 0
BRANCH_INDIRECT: 0
BRANCH_CONDITIONAL: 31.4387
BRANCH_DIRECT_CALL: 0
BRANCH_INDIRECT_CALL: 0
BRANCH_RETURN: 0

