
*** ChampSim Multicore Out-of-Order Simulator ***

Warmup Instructions: 30000000
Simulation Instructions: 30000000
Number of CPUs: 1
Off-chip DRAM Size: 4 GiB Channels: 1 Width: 64-bit Data Rate: 3200 MT/s

VirtualMemory physical capacity: 8588881920 num_ppages: 2096895
VirtualMemory page size: 4096 log2_page_size: 12

CPU 0 runs gap_traces/cc-6.trace.gz
CPU 0 Bimodal branch predictor
Basic BTB sets: 1024 ways: 8 indirect buffer size: 4096 RAS size: 64
Heartbeat CPU 0 instructions: 10000004 cycles: 2549852 heartbeat IPC: 3.9218 cumulative IPC: 3.9218 (Simulation time: 0 hr 0 min 15 sec) 
Heartbeat CPU 0 instructions: 20000002 cycles: 5242355 heartbeat IPC: 3.71402 cumulative IPC: 3.81508 (Simulation time: 0 hr 0 min 31 sec) 
Heartbeat CPU 0 instructions: 30000004 cycles: 8005881 heartbeat IPC: 3.61857 cumulative IPC: 3.74725 (Simulation time: 0 hr 0 min 47 sec) 

Warmup complete CPU 0 instructions: 30000004 cycles: 8005881 (Simulation time: 0 hr 0 min 47 sec) 

Heartbeat CPU 0 instructions: 40000000 cycles: 60128761 heartbeat IPC: 0.191854 cumulative IPC: 0.191854 (Simulation time: 0 hr 1 min 29 sec) 
Heartbeat CPU 0 instructions: 50000000 cycles: 111951642 heartbeat IPC: 0.192965 cumulative IPC: 0.192408 (Simulation time: 0 hr 2 min 12 sec) 
Heartbeat CPU 0 instructions: 60000003 cycles: 162302146 heartbeat IPC: 0.198608 cumulative IPC: 0.194431 (Simulation time: 0 hr 2 min 54 sec) 
Finished CPU 0 instructions: 30000004 cycles: 154296266 cumulative IPC: 0.194431 (Simulation time: 0 hr 2 min 54 sec) 

ChampSim completed all CPUs

Region of Interest Statistics

CPU 0 cumulative IPC: 0.194431 instructions: 30000004 cycles: 154296266
cpu0_DTLB TOTAL     ACCESS:    7976615  HIT:    6398875  MISS:    1577740
cpu0_DTLB LOAD      ACCESS:    7870088  HIT:    6292348  MISS:    1577740
cpu0_DTLB RFO       ACCESS:     106527  HIT:     106527  MISS:          0
cpu0_DTLB PREFETCH  ACCESS:          0  HIT:          0  MISS:          0
cpu0_DTLB WRITEBACK ACCESS:          0  HIT:          0  MISS:          0
cpu0_DTLB TRANSLATION ACCESS:          0  HIT:          0  MISS:          0
cpu0_DTLB PREFETCH  REQUESTED:          0  ISSUED:          0  USEFUL:          0  USELESS:          0
cpu0_DTLB AVERAGE MISS LATENCY: 9.75509 cycles
cpu0_ITLB TOTAL     ACCESS:    3232052  HIT:    3232052  MISS:          0
cpu0_ITLB LOAD      ACCESS:    3232052  HIT:    3232052  MISS:          0
cpu0_ITLB RFO       ACCESS:          0  HIT:          0  MISS:          0
cpu0_ITLB PREFETCH  ACCESS:          0  HIT:          0  MISS:          0
cpu0_ITLB WRITEBACK ACCESS:          0  HIT:          0  MISS:          0
cpu0_ITLB TRANSLATION ACCESS:          0  HIT:          0  MISS:          0
cpu0_ITLB PREFETCH  REQUESTED:          0  ISSUED:          0  USEFUL:          0  USELESS:          0
cpu0_ITLB AVERAGE MISS LATENCY: -nan cycles
cpu0_STLB TOTAL     ACCESS:    1577740  HIT:    1575402  MISS:       2338
cpu0_STLB LOAD      ACCESS:    1577740  HIT:    1575402  MISS:       2338
cpu0_STLB RFO       ACCESS:          0  HIT:          0  MISS:          0
cpu0_STLB PREFETCH  ACCESS:          0  HIT:          0  MISS:          0
cpu0_STLB WRITEBACK ACCESS:          0  HIT:          0  MISS:          0
cpu0_STLB TRANSLATION ACCESS:          0  HIT:          0  MISS:          0
cpu0_STLB PREFETCH  REQUESTED:          0  ISSUED:          0  USEFUL:          0  USELESS:          0
cpu0_STLB AVERAGE MISS LATENCY: 226.572 cycles
cpu0_L1D TOTAL     ACCESS:    6573433  HIT:    4186416  MISS:    2387017
cpu0_L1D LOAD      ACCESS:    6464163  HIT:    4079326  MISS:    2384837
cpu0_L1D RFO       ACCESS:     106932  HIT:     106932  MISS:          0
cpu0_L1D PREFETCH  ACCESS:          0  HIT:          0  MISS:          0
cpu0_L1D WRITEBACK ACCESS:          0  HIT:          0  MISS:          0
cpu0_L1D TRANSLATION ACCESS:       2338  HIT:        158  MISS:       2180
cpu0_L1D PREFETCH  REQUESTED:          0  ISSUED:          0  USEFUL:          0  USELESS:          0
cpu0_L1D AVERAGE MISS LATENCY: 105.264 cycles
cpu0_L2C TOTAL     ACCESS:    2474976  HIT:     821417  MISS:    1653559
cpu0_L2C LOAD      ACCESS:    2384837  HIT:     731403  MISS:    1653434
cpu0_L2C RFO       ACCESS:          0  HIT:          0  MISS:          0
cpu0_L2C PREFETCH  ACCESS:          0  HIT:          0  MISS:          0
cpu0_L2C WRITEBACK ACCESS:      87959  HIT:      87940  MISS:         19
cpu0_L2C TRANSLATION ACCESS:       2180  HIT:       2074  MISS:        106
cpu0_L2C PREFETCH  REQUESTED:          0  ISSUED:          0  USEFUL:          0  USELESS:          0
cpu0_L2C AVERAGE MISS LATENCY: 135.739 cycles
LLC TOTAL     ACCESS:    1741210  HIT:     800967  MISS:     940243
LLC LOAD      ACCESS:    1653434  HIT:     759375  MISS:     894059
LLC RFO       ACCESS:          0  HIT:          0  MISS:          0
LLC PREFETCH  ACCESS:          0  HIT:          0  MISS:          0
LLC WRITEBACK ACCESS:      87670  HIT:      41592  MISS:      46078
LLC TRANSLATION ACCESS:        106  HIT:          0  MISS:        106
LLC PREFETCH  REQUESTED:          0  ISSUED:          0  USEFUL:          0  USELESS:          0
LLC AVERAGE MISS LATENCY: 201.786 cycles

DRAM Statistics
 CHANNEL 0
 RQ ROW_BUFFER_HIT:      61114  ROW_BUFFER_MISS:     832932
 DBUS AVG_CONGESTED_CYCLE:     3.8788
 WQ ROW_BUFFER_HIT:      29375  ROW_BUFFER_MISS:      16762  FULL:          0


CPU 0 Branch Prediction Accuracy: 84.6764% MPKI: 31.4387 Average ROB Occupancy at Mispredict: 14.6416
Branch type MPKI
BRANCH_DIRECT_JUMP: 0
BRANCH_INDIRECT: 0
BRANCH_CONDITIONAL: 31.4387
BRANCH_DIRECT_CALL: 0
BRANCH_INDIRECT_CALL: 0
BRANCH_RETURN: 0

