
*** ChampSim Multicore Out-of-Order Simulator ***

Warmup Instructions: 30000000
Simulation Instructions: 30000000
Number of CPUs: 1
Off-chip DRAM Size: 4 GiB Channels: 1 Width: 64-bit Data Rate: 3200 MT/s

VirtualMemory physical capacity: 8588881920 num_ppages: 2096895
VirtualMemory page size: 4096 log2_page_size: 12

CPU 0 runs gap_traces/cc-6.trace.gz
CPU 0 Bimodal branch predictor
Basic BTB sets: 1024 ways: 8 indirect buffer size: 4096 RAS size: 64
Heartbeat CPU 0 instructions: 10000004 cycles: 2549839 heartbeat IPC: 3.92182 cumulative IPC: 3.92182 (Simulation time: 0 hr 0 min 13 sec) 
Heartbeat CPU 0 instructions: 20000001 cycles: 5242346 heartbeat IPC: 3.71401 cumulative IPC: 3.81509 (Simulation time: 0 hr 0 min 29 sec) 
Heartbeat CPU 0 instructions: 30000004 cycles: 8005869 heartbeat IPC: 3.61857 cumulative IPC: 3.74725 (Simulation time: 0 hr 0 min 45 sec) 

Warmup complete CPU 0 instructions: 30000004 cycles: 8005869 (Simulation time: 0 hr 0 min 45 sec) 

Heartbeat CPU 0 instructions: 40000000 cycles: 65411473 heartbeat IPC: 0.174199 cumulative IPC: 0.174199 (Simulation time: 0 hr 1 min 32 sec) 
Heartbeat CPU 0 instructions: 50000000 cycles: 122404365 heartbeat IPC: 0.17546 cumulative IPC: 0.174827 (Simulation time: 0 hr 2 min 18 sec) 
Heartbeat CPU 0 instructions: 60000003 cycles: 178082091 heartbeat IPC: 0.179605 cumulative IPC: 0.176391 (Simulation time: 0 hr 3 min 5 sec) 
Finished CPU 0 instructions: 30000004 cycles: 170076223 cumulative IPC: 0.176392 (Simulation time: 0 hr 3 min 5 sec) 

ChampSim completed all CPUs

Region of Interest Statistics

CPU 0 cumulative IPC: 0.176392 instructions: 30000004 cycles: 170076223
cpu0_DTLB TOTAL     ACCESS:    8012539  HIT:    6434767  MISS:    1577772
cpu0_DTLB LOAD      ACCESS:    7906002  HIT:    6328230  MISS:    1577772
cpu0_DTLB RFO       ACCESS:     106537  HIT:     106537  MISS:          0
cpu0_DTLB PREFETCH  ACCESS:          0  HIT:          0  MISS:          0
cpu0_DTLB WRITEBACK ACCESS:          0  HIT:          0  MISS:          0
cpu0_DTLB TRANSLATION ACCESS:          0  HIT:          0  MISS:          0
cpu0_DTLB PREFETCH  REQUESTED:          0  ISSUED:          0  USEFUL:          0  USELESS:          0
cpu0_DTLB AVERAGE MISS LATENCY: 9.74661 cycles
cpu0_ITLB TOTAL     ACCESS:    3214346  HIT:    3214346  MISS:          0
cpu0_ITLB LOAD      ACCESS:    3214346  HIT:    3214346  MISS:          0
cpu0_ITLB RFO       ACCESS:          0  HIT:          0  MISS:          0
cpu0_ITLB PREFETCH  ACCESS:          0  HIT:          0  MISS:          0
cpu0_ITLB WRITEBACK ACCESS:          0  HIT:          0  MISS:          0
cpu0_ITLB TRANSLATION ACCESS:          0  HIT:          0  MISS:          0
cpu0_ITLB PREFETCH  REQUESTED:          0  ISSUED:          0  USEFUL:          0  USELESS:          0
cpu0_ITLB AVERAGE MISS LATENCY: -nan cycles
cpu0_STLB TOTAL     ACCESS:    1577772  HIT:    1575434  MISS:       2338
cpu0_STLB LOAD      ACCESS:    1577772  HIT:    1575434  MISS:       2338
cpu0_STLB RFO       ACCESS:          0  HIT:          0  MISS:          0
cpu0_STLB PREFETCH  ACCESS:          0  HIT:          0  MISS:          0
cpu0_STLB WRITEBACK ACCESS:          0  HIT:          0  MISS:          0
cpu0_STLB TRANSLATION ACCESS:          0  HIT:          0  MISS:          0
cpu0_STLB PREFETCH  REQUESTED:          0  ISSUED:          0  USEFUL:          0  USELESS:          0
cpu0_STLB AVERAGE MISS LATENCY: 221.353 cycles
cpu0_L1D TOTAL     ACCESS:    6625927  HIT:    4238905  MISS:    2387022
cpu0_L1D LOAD      ACCESS:    6516657  HIT:    4131812  MISS:    2384845
cpu0_L1D RFO       ACCESS:     106932  HIT:     106932  MISS:          0
cpu0_L1D PREFETCH  ACCESS:          0  HIT:          0  MISS:          0
cpu0_L1D WRITEBACK ACCESS:          0  HIT:          0  MISS:          0
cpu0_L1D TRANSLATION ACCESS:       2338  HIT:        161  MISS:       2177
cpu0_L1D PREFETCH  REQUESTED:          0  ISSUED:          0  USEFUL:          0  USELESS:          0
cpu0_L1D AVERAGE MISS LATENCY: 107.061 cycles
cpu0_L2C TOTAL     ACCESS:    2474981  HIT:     821410  MISS:    1653571
cpu0_L2C LOAD      ACCESS:    2384845  HIT:     731399  MISS:    1653446
cpu0_L2C RFO       ACCESS:          0  HIT:          0  MISS:          0
cpu0_L2C PREFETCH  ACCESS:          0  HIT:          0  MISS:          0
cpu0_L2C WRITEBACK ACCESS:      87959  HIT:      87940  MISS:         19
cpu0_L2C TRANSLATION ACCESS:       2177  HIT:       2071  MISS:        106
cpu0_L2C PREFETCH  REQUESTED:          0  ISSUED:          0  USEFUL:          0  USELESS:          0
cpu0_L2C AVERAGE MISS LATENCY: 138.349 cycles
LLC TOTAL     ACCESS:    1741221  HIT:     731805  MISS:    1009416
LLC LOAD      ACCESS:    1653445  HIT:     663540  MISS:     989905
LLC RFO       ACCESS:          0  HIT:          0  MISS:          0
LLC PREFETCH  ACCESS:          0  HIT:          0  MISS:          0
LLC WRITEBACK ACCESS:      87670  HIT:      68190  MISS:      19480
LLC TRANSLATION ACCESS:        106  HIT:         75  MISS:         31
LLC PREFETCH  REQUESTED:          0  ISSUED:          0  USEFUL:          0  USELESS:          0
LLC AVERAGE MISS LATENCY: 192.235 cycles

DRAM Statistics
 CHANNEL 0
 RQ ROW_BUFFER_HIT:      31692  ROW_BUFFER_MISS:     958186
 DBUS AVG_CONGESTED_CYCLE:    3.81251
 WQ ROW_BUFFER_HIT:      52206  ROW_BUFFER_MISS:      32464  FULL:          0


CPU 0 Branch Prediction Accuracy: 84.6764% MPKI: 31.4387 Average ROB Occupancy at Mispredict: 14.6438
Branch type MPKI
BRANCH_DIRECT_JUMP: 0
BRANCH_INDIRECT: 0
BRANCH_CONDITIONAL: 31.4387
BRANCH_DIRECT_CALL: 0
BRANCH_INDIRECT_CALL: 0
BRANCH_RETURN: 0

