
*** ChampSim Multicore Out-of-Order Simulator ***

Warmup Instructions: 30000000
Simulation Instructions: 30000000
Number of CPUs: 1
Off-chip DRAM Size: 4 GiB Channels: 1 Width: 64-bit Data Rate: 3200 MT/s

VirtualMemory physical capacity: 8588881920 num_ppages: 2096895
VirtualMemory page size: 4096 log2_page_size: 12

CPU 0 runs gap_traces/cc-6.trace.gz
CPU 0 Bimodal branch predictor
Basic BTB sets: 1024 ways: 8 indirect buffer size: 4096 RAS size: 64
Heartbeat CPU 0 instructions: 10000004 cycles: 2549831 heartbeat IPC: 3.92183 cumulative IPC: 3.92183 (Simulation time: 0 hr 0 min 14 sec) 
Heartbeat CPU 0 instructions: 20000001 cycles: 5242342 heartbeat IPC: 3.714 cumulative IPC: 3.81509 (Simulation time: 0 hr 0 min 29 sec) 
Heartbeat CPU 0 instructions: 30000004 cycles: 8005863 heartbeat IPC: 3.61857 cumulative IPC: 3.74725 (Simulation time: 0 hr 0 min 44 sec) 

Warmup complete CPU 0 instructions: 30000004 cycles: 8005863 (Simulation time: 0 hr 0 min 44 sec) 

Heartbeat CPU 0 instructions: 40000000 cycles: 55622679 heartbeat IPC: 0.21001 cumulative IPC: 0.21001 (Simulation time: 0 hr 1 min 21 sec) 
Heartbeat CPU 0 instructions: 50000000 cycles: 102882812 heartbeat IPC: 0.211595 cumulative IPC: 0.210799 (Simulation time: 0 hr 1 min 57 sec) 
Heartbeat CPU 0 instructions: 60000003 cycles: 148922139 heartbeat IPC: 0.217206 cumulative IPC: 0.212892 (Simulation time: 0 hr 2 min 34 sec) 
Finished CPU 0 instructions: 30000004 cycles: 140916277 cumulative IPC: 0.212892 (Simulation time: 0 hr 2 min 34 sec) 

ChampSim completed all CPUs

Region of Interest Statistics

CPU 0 cumulative IPC: 0.212892 instructions: 30000004 cycles: 140916277
cpu0_DTLB TOTAL     ACCESS:    7960392  HIT:    6382664  MISS:    1577728
cpu0_DTLB LOAD      ACCESS:    7853809  HIT:    6276081  MISS:    1577728
cpu0_DTLB RFO       ACCESS:     106583  HIT:     106583  MISS:          0
cpu0_DTLB PREFETCH  ACCESS:          0  HIT:          0  MISS:          0
cpu0_DTLB WRITEBACK ACCESS:          0  HIT:          0  MISS:          0
cpu0_DTLB TRANSLATION ACCESS:          0  HIT:          0  MISS:          0
cpu0_DTLB PREFETCH  REQUESTED:          0  ISSUED:          0  USEFUL:          0  USELESS:          0
cpu0_DTLB AVERAGE MISS LATENCY: 9.74528 cycles
cpu0_ITLB TOTAL     ACCESS:    3225501  HIT:    3225501  MISS:          0
cpu0_ITLB LOAD      ACCESS:    3225501  HIT:    3225501  MISS:          0
cpu0_ITLB RFO       ACCESS:          0  HIT:          0  MISS:          0
cpu0_ITLB PREFETCH  ACCESS:          0  HIT:          0  MISS:          0
cpu0_ITLB WRITEBACK ACCESS:          0  HIT:          0  MISS:          0
cpu0_ITLB TRANSLATION ACCESS:          0  HIT:          0  MISS:          0
cpu0_ITLB PREFETCH  REQUESTED:          0  ISSUED:          0  USEFUL:          0  USELESS:          0
cpu0_ITLB AVERAGE MISS LATENCY: -nan cycles
cpu0_STLB TOTAL     ACCESS:    1577728  HIT:    1575390  MISS:       2338
cpu0_STLB LOAD      ACCESS:    1577728  HIT:    1575390  MISS:       2338
cpu0_STLB RFO       ACCESS:          0  HIT:          0  MISS:          0
cpu0_STLB PREFETCH  ACCESS:          0  HIT:          0  MISS:          0
cpu0_STLB WRITEBACK ACCESS:          0  HIT:          0  MISS:          0
cpu0_STLB TRANSLATION ACCESS:          0  HIT:          0  MISS:          0
cpu0_STLB PREFETCH  REQUESTED:          0  ISSUED:          0  USEFUL:          0  USELESS:          0
cpu0_STLB AVERAGE MISS LATENCY: 219.21 cycles
cpu0_L1D TOTAL     ACCESS:    6538919  HIT:    4151881  MISS:    2387038
cpu0_L1D LOAD      ACCESS:    6429649  HIT:    4044789  MISS:    2384860
cpu0_L1D RFO       ACCESS:     106932  HIT:     106932  MISS:          0
cpu0_L1D PREFETCH  ACCESS:          0  HIT:          0  MISS:          0
cpu0_L1D WRITEBACK ACCESS:          0  HIT:          0  MISS:          0
cpu0_L1D TRANSLATION ACCESS:       2338  HIT:        160  MISS:       2178
cpu0_L1D PREFETCH  REQUESTED:          0  ISSUED:          0  USEFUL:          0  USELESS:          0
cpu0_L1D AVERAGE MISS LATENCY: 73.0042 cycles
cpu0_L2C TOTAL     ACCESS:    2474997  HIT:     821415  MISS:    1653582
cpu0_L2C LOAD      ACCESS:    2384860  HIT:     731403  MISS:    1653457
cpu0_L2C RFO       ACCESS:          0  HIT:          0  MISS:          0
cpu0_L2C PREFETCH  ACCESS:          0  HIT:          0  MISS:          0
cpu0_L2C WRITEBACK ACCESS:      87959  HIT:      87940  MISS:         19
cpu0_L2C TRANSLATION ACCESS:       2178  HIT:       2072  MISS:        106
cpu0_L2C PREFETCH  REQUESTED:          0  ISSUED:          0  USEFUL:          0  USELESS:          0
cpu0_L2C AVERAGE MISS LATENCY: 89.1765 cycles
LLC TOTAL     ACCESS:    1741233  HIT:    1107205  MISS:     634028
LLC LOAD      ACCESS:    1653457  HIT:    1020999  MISS:     632458
LLC RFO       ACCESS:          0  HIT:          0  MISS:          0
LLC PREFETCH  ACCESS:          0  HIT:          0  MISS:          0
LLC WRITEBACK ACCESS:      87670  HIT:      86100  MISS:       1570
LLC TRANSLATION ACCESS:        106  HIT:        106  MISS:          0
LLC PREFETCH  REQUESTED:          0  ISSUED:          0  USEFUL:          0  USELESS:          0
LLC AVERAGE MISS LATENCY: 177.809 cycles

DRAM Statistics
 CHANNEL 0
 RQ ROW_BUFFER_HIT:      13441  ROW_BUFFER_MISS:     619008
 DBUS AVG_CONGESTED_CYCLE:    3.69754
 WQ ROW_BUFFER_HIT:      39153  ROW_BUFFER_MISS:      39562  FULL:          0


CPU 0 Branch Prediction Accuracy: 84.6764% MPKI: 31.4387 Average ROB Occupancy at Mispredict: 14.6398
Branch type MPKI
BRANCH_DIRECT_JUMP: 0
BRANCH_INDIRECT: 0
BRANCH_CONDITIONAL: 31.4387
BRANCH_DIRECT_CALL: 0
BRANCH_INDIRECT_CALL: 0
BRANCH_RETURN: 0

