
*** ChampSim Multicore Out-of-Order Simulator ***

Warmup Instructions: 30000000
Simulation Instructions: 30000000
Number of CPUs: 1
Off-chip DRAM Size: 4 GiB Channels: 1 Width: 64-bit Data Rate: 3200 MT/s

VirtualMemory physical capacity: 8588881920 num_ppages: 2096895
VirtualMemory page size: 4096 log2_page_size: 12

CPU 0 runs gap_traces/cc-6.trace.gz
CPU 0 Bimodal branch predictor
Basic BTB sets: 1024 ways: 8 indirect buffer size: 4096 RAS size: 64
Heartbeat CPU 0 instructions: 10000004 cycles: 2549823 heartbeat IPC: 3.92184 cumulative IPC: 3.92184 (Simulation time: 0 hr 0 min 13 sec) 
Heartbeat CPU 0 instructions: 20000001 cycles: 5242333 heartbeat IPC: 3.71401 cumulative IPC: 3.8151 (Simulation time: 0 hr 0 min 29 sec) 
Heartbeat CPU 0 instructions: 30000004 cycles: 8005855 heartbeat IPC: 3.61857 cumulative IPC: 3.74726 (Simulation time: 0 hr 0 min 45 sec) 

Warmup complete CPU 0 instructions: 30000004 cycles: 8005855 (Simulation time: 0 hr 0 min 45 sec) 

Heartbeat CPU 0 instructions: 40000000 cycles: 54832650 heartbeat IPC: 0.213553 cumulative IPC: 0.213553 (Simulation time: 0 hr 1 min 23 sec) 
Heartbeat CPU 0 instructions: 50000000 cycles: 101291845 heartbeat IPC: 0.215243 cumulative IPC: 0.214394 (Simulation time: 0 hr 2 min 1 sec) 
Heartbeat CPU 0 instructions: 60000003 cycles: 146549624 heartbeat IPC: 0.220957 cumulative IPC: 0.216538 (Simulation time: 0 hr 2 min 40 sec) 
Finished CPU 0 instructions: 30000004 cycles: 138543770 cumulative IPC: 0.216538 (Simulation time: 0 hr 2 min 40 sec) 

ChampSim completed all CPUs

Region of Interest Statistics

CPU 0 cumulative IPC: 0.216538 instructions: 30000004 cycles: 138543770
cpu0_DTLB TOTAL     ACCESS:    7955728  HIT:    6377993  MISS:    1577735
cpu0_DTLB LOAD      ACCESS:    7849151  HIT:    6271416  MISS:    1577735
cpu0_DTLB RFO       ACCESS:     106577  HIT:     106577  MISS:          0
cpu0_DTLB PREFETCH  ACCESS:          0  HIT:          0  MISS:          0
cpu0_DTLB WRITEBACK ACCESS:          0  HIT:          0  MISS:          0
cpu0_DTLB TRANSLATION ACCESS:          0  HIT:          0  MISS:          0
cpu0_DTLB PREFETCH  REQUESTED:          0  ISSUED:          0  USEFUL:          0  USELESS:          0
cpu0_DTLB AVERAGE MISS LATENCY: 9.74535 cycles
cpu0_ITLB TOTAL     ACCESS:    3225853  HIT:    3225853  MISS:          0
cpu0_ITLB LOAD      ACCESS:    3225853  HIT:    3225853  MISS:          0
cpu0_ITLB RFO       ACCESS:          0  HIT:          0  MISS:          0
cpu0_ITLB PREFETCH  ACCESS:          0  HIT:          0  MISS:          0
cpu0_ITLB WRITEBACK ACCESS:          0  HIT:          0  MISS:          0
cpu0_ITLB TRANSLATION ACCESS:          0  HIT:          0  MISS:          0
cpu0_ITLB PREFETCH  REQUESTED:          0  ISSUED:          0  USEFUL:          0  USELESS:          0
cpu0_ITLB AVERAGE MISS LATENCY: -nan cycles
cpu0_STLB TOTAL     ACCESS:    1577735  HIT:    1575397  MISS:       2338
cpu0_STLB LOAD      ACCESS:    1577735  HIT:    1575397  MISS:       2338
cpu0_STLB RFO       ACCESS:          0  HIT:          0  MISS:          0
cpu0_STLB PREFETCH  ACCESS:          0  HIT:          0  MISS:          0
cpu0_STLB WRITEBACK ACCESS:          0  HIT:          0  MISS:          0
cpu0_STLB TRANSLATION ACCESS:          0  HIT:          0  MISS:          0
cpu0_STLB PREFETCH  REQUESTED:          0  ISSUED:          0  USEFUL:          0  USELESS:          0
cpu0_STLB AVERAGE MISS LATENCY: 219.204 cycles
cpu0_L1D TOTAL     ACCESS:    6531604  HIT:    4144569  MISS:    2387035
cpu0_L1D LOAD      ACCESS:    6422334  HIT:    4037476  MISS:    2384858
cpu0_L1D RFO       ACCESS:     106932  HIT:     106932  MISS:          0
cpu0_L1D PREFETCH  ACCESS:          0  HIT:          0  MISS:          0
cpu0_L1D WRITEBACK ACCESS:          0  HIT:          0  MISS:          0
cpu0_L1D TRANSLATION ACCESS:       2338  HIT:        161  MISS:       2177
cpu0_L1D PREFETCH  REQUESTED:          0  ISSUED:          0  USEFUL:          0  USELESS:          0
cpu0_L1D AVERAGE MISS LATENCY: 70.6447 cycles
cpu0_L2C TOTAL     ACCESS:    2474994  HIT:     821416  MISS:    1653578
cpu0_L2C LOAD      ACCESS:    2384858  HIT:     731405  MISS:    1653453
cpu0_L2C RFO       ACCESS:          0  HIT:          0  MISS:          0
cpu0_L2C PREFETCH  ACCESS:          0  HIT:          0  MISS:          0
cpu0_L2C WRITEBACK ACCESS:      87959  HIT:      87940  MISS:         19
cpu0_L2C TRANSLATION ACCESS:       2177  HIT:       2071  MISS:        106
cpu0_L2C PREFETCH  REQUESTED:          0  ISSUED:          0  USEFUL:          0  USELESS:          0
cpu0_L2C AVERAGE MISS LATENCY: 85.7694 cycles
LLC TOTAL     ACCESS:    1741228  HIT:    1132760  MISS:     608468
LLC LOAD      ACCESS:    1653452  HIT:    1048099  MISS:     605353
LLC RFO       ACCESS:          0  HIT:          0  MISS:          0
LLC PREFETCH  ACCESS:          0  HIT:          0  MISS:          0
LLC WRITEBACK ACCESS:      87670  HIT:      84555  MISS:       3115
LLC TRANSLATION ACCESS:        106  HIT:        106  MISS:          0
LLC PREFETCH  REQUESTED:          0  ISSUED:          0  USEFUL:          0  USELESS:          0
LLC AVERAGE MISS LATENCY: 176.018 cycles

DRAM Statistics
 CHANNEL 0
 RQ ROW_BUFFER_HIT:      12569  ROW_BUFFER_MISS:     592780
 DBUS AVG_CONGESTED_CYCLE:     3.6838
 WQ ROW_BUFFER_HIT:      37537  ROW_BUFFER_MISS:      39779  FULL:          0


CPU 0 Branch Prediction Accuracy: 84.6764% MPKI: 31.4387 Average ROB Occupancy at Mispredict: 14.6393
Branch type MPKI
BRANCH_DIRECT_JUMP: 0
BRANCH_INDIRECT: 0
BRANCH_CONDITIONAL: 31.4387
BRANCH_DIRECT_CALL: 0
BRANCH_INDIRECT_CALL: 0
BRANCH_RETURN: 0

