
*** ChampSim Multicore Out-of-Order Simulator ***

Warmup Instructions: 30000000
Simulation Instructions: 30000000
Number of CPUs: 1
Off-chip DRAM Size: 4 GiB Channels: 1 Width: 64-bit Data Rate: 3200 MT/s

VirtualMemory physical capacity: 8588881920 num_ppages: 2096895
VirtualMemory page size: 4096 log2_page_size: 12

CPU 0 runs gap_traces/cc-6.trace.gz
CPU 0 Bimodal branch predictor
Basic BTB sets: 1024 ways: 8 indirect buffer size: 4096 RAS size: 64
Heartbeat CPU 0 instructions: 10000004 cycles: 2549833 heartbeat IPC: 3.92183 cumulative IPC: 3.92183 (Simulation time: 0 hr 0 min 14 sec) 
Heartbeat CPU 0 instructions: 20000002 cycles: 5242349 heartbeat IPC: 3.714 cumulative IPC: 3.81508 (Simulation time: 0 hr 0 min 30 sec) 
Heartbeat CPU 0 instructions: 30000004 cycles: 8005869 heartbeat IPC: 3.61857 cumulative IPC: 3.74725 (Simulation time: 0 hr 0 min 47 sec) 

Warmup complete CPU 0 instructions: 30000004 cycles: 8005869 (Simulation time: 0 hr 0 min 47 sec) 

Heartbeat CPU 0 instructions: 40000000 cycles: 61914550 heartbeat IPC: 0.185499 cumulative IPC: 0.185499 (Simulation time: 0 hr 1 min 28 sec) 
Heartbeat CPU 0 instructions: 50000000 cycles: 115505264 heartbeat IPC: 0.186599 cumulative IPC: 0.186048 (Simulation time: 0 hr 2 min 10 sec) 
Heartbeat CPU 0 instructions: 60000003 cycles: 167779029 heartbeat IPC: 0.191301 cumulative IPC: 0.187766 (Simulation time: 0 hr 2 min 52 sec) 
Finished CPU 0 instructions: 30000004 cycles: 159773161 cumulative IPC: 0.187766 (Simulation time: 0 hr 2 min 52 sec) 

ChampSim completed all CPUs

Region of Interest Statistics

CPU 0 cumulative IPC: 0.187766 instructions: 30000004 cycles: 159773161
cpu0_DTLB TOTAL     ACCESS:    7996199  HIT:    6418446  MISS:    1577753
cpu0_DTLB LOAD      ACCESS:    7889652  HIT:    6311899  MISS:    1577753
cpu0_DTLB RFO       ACCESS:     106547  HIT:     106547  MISS:          0
cpu0_DTLB PREFETCH  ACCESS:          0  HIT:          0  MISS:          0
cpu0_DTLB WRITEBACK ACCESS:          0  HIT:          0  MISS:          0
cpu0_DTLB TRANSLATION ACCESS:          0  HIT:          0  MISS:          0
cpu0_DTLB PREFETCH  REQUESTED:          0  ISSUED:          0  USEFUL:          0  USELESS:          0
cpu0_DTLB AVERAGE MISS LATENCY: 9.74647 cycles
cpu0_ITLB TOTAL     ACCESS:    3217267  HIT:    3217267  MISS:          0
cpu0_ITLB LOAD      ACCESS:    3217267  HIT:    3217267  MISS:          0
cpu0_ITLB RFO       ACCESS:          0  HIT:          0  MISS:          0
cpu0_ITLB PREFETCH  ACCESS:          0  HIT:          0  MISS:          0
cpu0_ITLB WRITEBACK ACCESS:          0  HIT:          0  MISS:          0
cpu0_ITLB TRANSLATION ACCESS:          0  HIT:          0  MISS:          0
cpu0_ITLB PREFETCH  REQUESTED:          0  ISSUED:          0  USEFUL:          0  USELESS:          0
cpu0_ITLB AVERAGE MISS LATENCY: -nan cycles
cpu0_STLB TOTAL     ACCESS:    1577753  HIT:    1575415  MISS:       2338
cpu0_STLB LOAD      ACCESS:    1577753  HIT:    1575415  MISS:       2338
cpu0_STLB RFO       ACCESS:          0  HIT:          0  MISS:          0
cpu0_STLB PREFETCH  ACCESS:          0  HIT:          0  MISS:          0
cpu0_STLB WRITEBACK ACCESS:          0  HIT:          0  MISS:          0
cpu0_STLB TRANSLATION ACCESS:          0  HIT:          0  MISS:          0
cpu0_STLB PREFETCH  REQUESTED:          0  ISSUED:          0  USEFUL:          0  USELESS:          0
cpu0_STLB AVERAGE MISS LATENCY: 220.727 cycles
cpu0_L1D TOTAL     ACCESS:    6596312  HIT:    4209263  MISS:    2387049
cpu0_L1D LOAD      ACCESS:    6487042  HIT:    4102169  MISS:    2384873
cpu0_L1D RFO       ACCESS:     106932  HIT:     106932  MISS:          0
cpu0_L1D PREFETCH  ACCESS:          0  HIT:          0  MISS:          0
cpu0_L1D WRITEBACK ACCESS:          0  HIT:          0  MISS:          0
cpu0_L1D TRANSLATION ACCESS:       2338  HIT:        162  MISS:       2176
cpu0_L1D PREFETCH  REQUESTED:          0  ISSUED:          0  USEFUL:          0  USELESS:          0
cpu0_L1D AVERAGE MISS LATENCY: 93.397 cycles
cpu0_L2C TOTAL     ACCESS:    2475008  HIT:     821433  MISS:    1653575
cpu0_L2C LOAD      ACCESS:    2384873  HIT:     731423  MISS:    1653450
cpu0_L2C RFO       ACCESS:          0  HIT:          0  MISS:          0
cpu0_L2C PREFETCH  ACCESS:          0  HIT:          0  MISS:          0
cpu0_L2C WRITEBACK ACCESS:      87959  HIT:      87940  MISS:         19
cpu0_L2C TRANSLATION ACCESS:       2176  HIT:       2070  MISS:        106
cpu0_L2C PREFETCH  REQUESTED:          0  ISSUED:          0  USEFUL:          0  USELESS:          0
cpu0_L2C AVERAGE MISS LATENCY: 118.624 cycles
LLC TOTAL     ACCESS:    1741225  HIT:     877450  MISS:     863775
LLC LOAD      ACCESS:    1653449  HIT:     800111  MISS:     853338
LLC RFO       ACCESS:          0  HIT:          0  MISS:          0
LLC PREFETCH  ACCESS:          0  HIT:          0  MISS:          0
LLC WRITEBACK ACCESS:      87670  HIT:      77255  MISS:      10415
LLC TRANSLATION ACCESS:        106  HIT:         84  MISS:         22
LLC PREFETCH  REQUESTED:          0  ISSUED:          0  USEFUL:          0  USELESS:          0
LLC AVERAGE MISS LATENCY: 186.888 cycles

DRAM Statistics
 CHANNEL 0
 RQ ROW_BUFFER_HIT:      20170  ROW_BUFFER_MISS:     833144
 DBUS AVG_CONGESTED_CYCLE:    3.77235
 WQ ROW_BUFFER_HIT:      48725  ROW_BUFFER_MISS:      37282  FULL:          0


CPU 0 Branch Prediction Accuracy: 84.6764% MPKI: 31.4387 Average ROB Occupancy at Mispredict: 14.6415
Branch type MPKI
BRANCH_DIRECT_JUMP: 0
BRANCH_INDIRECT: 0
BRANCH_CONDITIONAL: 31.4387
BRANCH_DIRECT_CALL: 0
BRANCH_INDIRECT_CALL: 0
BRANCH_RETURN: 0

