
*** ChampSim Multicore Out-of-Order Simulator ***

Warmup Instructions: 30000000
Simulation Instructions: 30000000
Number of CPUs: 1
Off-chip DRAM Size: 4 GiB Channels: 1 Width: 64-bit Data Rate: 3200 MT/s

VirtualMemory physical capacity: 8588881920 num_ppages: 2096895
VirtualMemory page size: 4096 log2_page_size: 12

CPU 0 runs gap_traces/cc-6.trace.gz
CPU 0 Bimodal branch predictor
Basic BTB sets: 1024 ways: 8 indirect buffer size: 4096 RAS size: 64
Heartbeat CPU 0 instructions: 10000001 cycles: 2549827 heartbeat IPC: 3.92184 cumulative IPC: 3.92184 (Simulation time: 0 hr 0 min 14 sec) 
Heartbeat CPU 0 instructions: 20000002 cycles: 5242346 heartbeat IPC: 3.71399 cumulative IPC: 3.81509 (Simulation time: 0 hr 0 min 30 sec) 
Heartbeat CPU 0 instructions: 30000004 cycles: 8005869 heartbeat IPC: 3.61857 cumulative IPC: 3.74725 (Simulation time: 0 hr 0 min 46 sec) 

Warmup complete CPU 0 instructions: 30000004 cycles: 8005869 (Simulation time: 0 hr 0 min 46 sec) 

Heartbeat CPU 0 instructions: 40000000 cycles: 61128200 heartbeat IPC: 0.188245 cumulative IPC: 0.188245 (Simulation time: 0 hr 1 min 27 sec) 
Heartbeat CPU 0 instructions: 50000000 cycles: 113884512 heartbeat IPC: 0.189551 cumulative IPC: 0.188895 (Simulation time: 0 hr 2 min 9 sec) 
Heartbeat CPU 0 instructions: 60000003 cycles: 165366389 heartbeat IPC: 0.194243 cumulative IPC: 0.190645 (Simulation time: 0 hr 2 min 50 sec) 
Finished CPU 0 instructions: 30000004 cycles: 157360521 cumulative IPC: 0.190645 (Simulation time: 0 hr 2 min 50 sec) 

ChampSim completed all CPUs

Region of Interest Statistics

CPU 0 cumulative IPC: 0.190645 instructions: 30000004 cycles: 157360521
cpu0_DTLB TOTAL     ACCESS:    7990947  HIT:    6413179  MISS:    1577768
cpu0_DTLB LOAD      ACCESS:    7884387  HIT:    6306619  MISS:    1577768
cpu0_DTLB RFO       ACCESS:     106560  HIT:     106560  MISS:          0
cpu0_DTLB PREFETCH  ACCESS:          0  HIT:          0  MISS:          0
cpu0_DTLB WRITEBACK ACCESS:          0  HIT:          0  MISS:          0
cpu0_DTLB TRANSLATION ACCESS:          0  HIT:          0  MISS:          0
cpu0_DTLB PREFETCH  REQUESTED:          0  ISSUED:          0  USEFUL:          0  USELESS:          0
cpu0_DTLB AVERAGE MISS LATENCY: 9.74474 cycles
cpu0_ITLB TOTAL     ACCESS:    3218308  HIT:    3218308  MISS:          0
cpu0_ITLB LOAD      ACCESS:    3218308  HIT:    3218308  MISS:          0
cpu0_ITLB RFO       ACCESS:          0  HIT:          0  MISS:          0
cpu0_ITLB PREFETCH  ACCESS:          0  HIT:          0  MISS:          0
cpu0_ITLB WRITEBACK ACCESS:          0  HIT:          0  MISS:          0
cpu0_ITLB TRANSLATION ACCESS:          0  HIT:          0  MISS:          0
cpu0_ITLB PREFETCH  REQUESTED:          0  ISSUED:          0  USEFUL:          0  USELESS:          0
cpu0_ITLB AVERAGE MISS LATENCY: -nan cycles
cpu0_STLB TOTAL     ACCESS:    1577768  HIT:    1575430  MISS:       2338
cpu0_STLB LOAD      ACCESS:    1577768  HIT:    1575430  MISS:       2338
cpu0_STLB RFO       ACCESS:          0  HIT:          0  MISS:          0
cpu0_STLB PREFETCH  ACCESS:          0  HIT:          0  MISS:          0
cpu0_STLB WRITEBACK ACCESS:          0  HIT:          0  MISS:          0
cpu0_STLB TRANSLATION ACCESS:          0  HIT:          0  MISS:          0
cpu0_STLB PREFETCH  REQUESTED:          0  ISSUED:          0  USEFUL:          0  USELESS:          0
cpu0_STLB AVERAGE MISS LATENCY: 219.546 cycles
cpu0_L1D TOTAL     ACCESS:    6588714  HIT:    4201690  MISS:    2387024
cpu0_L1D LOAD      ACCESS:    6479444  HIT:    4094596  MISS:    2384848
cpu0_L1D RFO       ACCESS:     106932  HIT:     106932  MISS:          0
cpu0_L1D PREFETCH  ACCESS:          0  HIT:          0  MISS:          0
cpu0_L1D WRITEBACK ACCESS:          0  HIT:          0  MISS:          0
cpu0_L1D TRANSLATION ACCESS:       2338  HIT:        162  MISS:       2176
cpu0_L1D PREFETCH  REQUESTED:          0  ISSUED:          0  USEFUL:          0  USELESS:          0
cpu0_L1D AVERAGE MISS LATENCY: 90.8659 cycles
cpu0_L2C TOTAL     ACCESS:    2474983  HIT:     821405  MISS:    1653578
cpu0_L2C LOAD      ACCESS:    2384848  HIT:     731395  MISS:    1653453
cpu0_L2C RFO       ACCESS:          0  HIT:          0  MISS:          0
cpu0_L2C PREFETCH  ACCESS:          0  HIT:          0  MISS:          0
cpu0_L2C WRITEBACK ACCESS:      87959  HIT:      87940  MISS:         19
cpu0_L2C TRANSLATION ACCESS:       2176  HIT:       2070  MISS:        106
cpu0_L2C PREFETCH  REQUESTED:          0  ISSUED:          0  USEFUL:          0  USELESS:          0
cpu0_L2C AVERAGE MISS LATENCY: 114.968 cycles
LLC TOTAL     ACCESS:    1741228  HIT:     911655  MISS:     829573
LLC LOAD      ACCESS:    1653452  HIT:     826072  MISS:     827380
LLC RFO       ACCESS:          0  HIT:          0  MISS:          0
LLC PREFETCH  ACCESS:          0  HIT:          0  MISS:          0
LLC WRITEBACK ACCESS:      87670  HIT:      85482  MISS:       2188
LLC TRANSLATION ACCESS:        106  HIT:        101  MISS:          5
LLC PREFETCH  REQUESTED:          0  ISSUED:          0  USEFUL:          0  USELESS:          0
LLC AVERAGE MISS LATENCY: 187.305 cycles

DRAM Statistics
 CHANNEL 0
 RQ ROW_BUFFER_HIT:      20944  ROW_BUFFER_MISS:     806384
 DBUS AVG_CONGESTED_CYCLE:    3.77103
 WQ ROW_BUFFER_HIT:      47407  ROW_BUFFER_MISS:      37172  FULL:          0


CPU 0 Branch Prediction Accuracy: 84.6764% MPKI: 31.4387 Average ROB Occupancy at Mispredict: 14.6422
Branch type MPKI
BRANCH_DIRECT_JUMP: 0
BRANCH_INDIRECT: 0
BRANCH_CONDITIONAL: 31.4387
BRANCH_DIRECT_CALL: 0
BRANCH_INDIRECT_CALL: 0
BRANCH_RETURN: 0

