
*** ChampSim Multicore Out-of-Order Simulator ***

Warmup Instructions: 30000000
Simulation Instructions: 30000000
Number of CPUs: 1
Off-chip DRAM Size: 4 GiB Channels: 1 Width: 64-bit Data Rate: 3200 MT/s

VirtualMemory physical capacity: 8588881920 num_ppages: 2096895
VirtualMemory page size: 4096 log2_page_size: 12

CPU 0 runs gap_traces/bfs-3.trace.gz
CPU 0 Bimodal branch predictor
Basic BTB sets: 1024 ways: 8 indirect buffer size: 4096 RAS size: 64
Heartbeat CPU 0 instructions: 10000003 cycles: 2500200 heartbeat IPC: 3.99968 cumulative IPC: 3.99968 (Simulation time: 0 hr 0 min 12 sec) 
Heartbeat CPU 0 instructions: 20000003 cycles: 5135372 heartbeat IPC: 3.79482 cumulative IPC: 3.89456 (Simulation time: 0 hr 0 min 26 sec) 
Heartbeat CPU 0 instructions: 30000002 cycles: 7762209 heartbeat IPC: 3.80686 cumulative IPC: 3.86488 (Simulation time: 0 hr 0 min 40 sec) 

Warmup complete CPU 0 instructions: 30000002 cycles: 7762209 (Simulation time: 0 hr 0 min 40 sec) 

Heartbeat CPU 0 instructions: 40000002 cycles: 48850253 heartbeat IPC: 0.24338 cumulative IPC: 0.24338 (Simulation time: 0 hr 1 min 7 sec) 
Heartbeat CPU 0 instructions: 50000000 cycles: 96603608 heartbeat IPC: 0.209409 cumulative IPC: 0.22512 (Simulation time: 0 hr 1 min 36 sec) 
Heartbeat CPU 0 instructions: 60000000 cycles: 151956961 heartbeat IPC: 0.180658 cumulative IPC: 0.208052 (Simulation time: 0 hr 2 min 10 sec) 
Finished CPU 0 instructions: 30000002 cycles: 144194753 cumulative IPC: 0.208052 (Simulation time: 0 hr 2 min 10 sec) 

ChampSim completed all CPUs

Region of Interest Statistics

CPU 0 cumulative IPC: 0.208052 instructions: 30000002 cycles: 144194753
cpu0_DTLB TOTAL     ACCESS:    6722978  HIT:    6680858  MISS:      42120
cpu0_DTLB LOAD      ACCESS:    5965118  HIT:    5923131  MISS:      41987
cpu0_DTLB RFO       ACCESS:     757860  HIT:     757727  MISS:        133
cpu0_DTLB PREFETCH  ACCESS:          0  HIT:          0  MISS:          0
cpu0_DTLB WRITEBACK ACCESS:          0  HIT:          0  MISS:          0
cpu0_DTLB TRANSLATION ACCESS:          0  HIT:          0  MISS:          0
cpu0_DTLB PREFETCH  REQUESTED:          0  ISSUED:          0  USEFUL:          0  USELESS:          0
cpu0_DTLB AVERAGE MISS LATENCY: 65.7465 cycles
cpu0_ITLB TOTAL     ACCESS:    3444641  HIT:    3444641  MISS:          0
cpu0_ITLB LOAD      ACCESS:    3444641  HIT:    3444641  MISS:          0
cpu0_ITLB RFO       ACCESS:          0  HIT:          0  MISS:          0
cpu0_ITLB PREFETCH  ACCESS:          0  HIT:          0  MISS:          0
cpu0_ITLB WRITEBACK ACCESS:          0  HIT:          0  MISS:          0
cpu0_ITLB TRANSLATION ACCESS:          0  HIT:          0  MISS:          0
cpu0_ITLB PREFETCH  REQUESTED:          0  ISSUED:          0  USEFUL:          0  USELESS:          0
cpu0_ITLB AVERAGE MISS LATENCY: -nan cycles
cpu0_L1I TOTAL     ACCESS:         91  HIT:         90  MISS:          1
cpu0_L1I LOAD      ACCESS:         91  HIT:         90  MISS:          1
cpu0_L1I RFO       ACCESS:          0  HIT:          0  MISS:          0
cpu0_L1I PREFETCH  ACCESS:          0  HIT:          0  MISS:          0
cpu0_L1I WRITEBACK ACCESS:          0  HIT:          0  MISS:          0
cpu0_L1I TRANSLATION ACCESS:          0  HIT:          0  MISS:          0
cpu0_L1I PREFETCH  REQUESTED:          0  ISSUED:          0  USEFUL:          0  USELESS:          0
cpu0_L1I AVERAGE MISS LATENCY: 297 cycles
cpu0_STLB TOTAL     ACCESS:      42120  HIT:       3899  MISS:      38221
cpu0_STLB LOAD      ACCESS:      41987  HIT:       3813  MISS:      38174
cpu0_STLB RFO       ACCESS:        133  HIT:         86  MISS:         47
cpu0_STLB PREFETCH  ACCESS:          0  HIT:          0  MISS:          0
cpu0_STLB WRITEBACK ACCESS:          0  HIT:          0  MISS:          0
cpu0_STLB TRANSLATION ACCESS:          0  HIT:          0  MISS:          0
cpu0_STLB PREFETCH  REQUESTED:          0  ISSUED:          0  USEFUL:          0  USELESS:          0
cpu0_STLB AVERAGE MISS LATENCY: 62.5352 cycles
cpu0_L1D TOTAL     ACCESS:    6663249  HIT:    5462444  MISS:    1200805
cpu0_L1D LOAD      ACCESS:    5825568  HIT:    4629899  MISS:    1195669
cpu0_L1D RFO       ACCESS:     799463  HIT:     795548  MISS:       3915
cpu0_L1D PREFETCH  ACCESS:          0  HIT:          0  MISS:          0
cpu0_L1D WRITEBACK ACCESS:          0  HIT:          0  MISS:          0
cpu0_L1D TRANSLATION ACCESS:      38218  HIT:      36997  MISS:       1221
cpu0_L1D PREFETCH  REQUESTED:          0  ISSUED:          0  USEFUL:          0  USELESS:          0
cpu0_L1D AVERAGE MISS LATENCY: 96.0818 cycles
cpu0_L2C TOTAL     ACCESS:    1300842  HIT:     655461  MISS:     645381
cpu0_L2C LOAD      ACCESS:    1195669  HIT:     563814  MISS:     631855
cpu0_L2C RFO       ACCESS:       3914  HIT:       3324  MISS:        590
cpu0_L2C PREFETCH  ACCESS:          0  HIT:          0  MISS:          0
cpu0_L2C WRITEBACK ACCESS:     100038  HIT:      87146  MISS:      12892
cpu0_L2C TRANSLATION ACCESS:       1221  HIT:       1177  MISS:         44
cpu0_L2C PREFETCH  REQUESTED:          0  ISSUED:          0  USEFUL:          0  USELESS:          0
cpu0_L2C AVERAGE MISS LATENCY: 158.146 cycles
LLC TOTAL     ACCESS:     732320  HIT:      69243  MISS:     663077
LLC LOAD      ACCESS:     631855  HIT:      51517  MISS:     580338
LLC RFO       ACCESS:        590  HIT:        509  MISS:         81
LLC PREFETCH  ACCESS:          0  HIT:          0  MISS:          0
LLC WRITEBACK ACCESS:      99831  HIT:      17204  MISS:      82627
LLC TRANSLATION ACCESS:         44  HIT:         13  MISS:         31
LLC PREFETCH  REQUESTED:          0  ISSUED:          0  USEFUL:          0  USELESS:          0
LLC AVERAGE MISS LATENCY: 133.894 cycles

DRAM Statistics
 CHANNEL 0
 RQ ROW_BUFFER_HIT:      66641  ROW_BUFFER_MISS:     513450
 DBUS AVG_CONGESTED_CYCLE:    3.71202
 WQ ROW_BUFFER_HIT:      94945  ROW_BUFFER_MISS:      73406  FULL:          0


CPU 0 Branch Prediction Accuracy: 76.962% MPKI: 46.9029 Average ROB Occupancy at Mispredict: 7.51436
Branch type MPKI
BRANCH_DIRECT_JUMP: 3.33333e-05
BRANCH_INDIRECT: 0
BRANCH_CONDITIONAL: 46.9028
BRANCH_DIRECT_CALL: 3.33333e-05
BRANCH_INDIRECT_CALL: 0
BRANCH_RETURN: 3.33333e-05

