
*** ChampSim Multicore Out-of-Order Simulator ***

Warmup Instructions: 30000000
Simulation Instructions: 30000000
Number of CPUs: 1
Off-chip DRAM Size: 4 GiB Channels: 1 Width: 64-bit Data Rate: 3200 MT/s

VirtualMemory physical capacity: 8588881920 num_ppages: 2096895
VirtualMemory page size: 4096 log2_page_size: 12

CPU 0 runs gap_traces/bfs-3.trace.gz
CPU 0 Bimodal branch predictor
Basic BTB sets: 1024 ways: 8 indirect buffer size: 4096 RAS size: 64
Heartbeat CPU 0 instructions: 10000003 cycles: 2500200 heartbeat IPC: 3.99968 cumulative IPC: 3.99968 (Simulation time: 0 hr 0 min 12 sec) 
Heartbeat CPU 0 instructions: 20000003 cycles: 5135371 heartbeat IPC: 3.79482 cumulative IPC: 3.89456 (Simulation time: 0 hr 0 min 26 sec) 
Heartbeat CPU 0 instructions: 30000002 cycles: 7762208 heartbeat IPC: 3.80686 cumulative IPC: 3.86488 (Simulation time: 0 hr 0 min 41 sec) 

Warmup complete CPU 0 instructions: 30000002 cycles: 7762208 (Simulation time: 0 hr 0 min 41 sec) 

Heartbeat CPU 0 instructions: 40000002 cycles: 48699113 heartbeat IPC: 0.244278 cumulative IPC: 0.244278 (Simulation time: 0 hr 1 min 7 sec) 
Heartbeat CPU 0 instructions: 50000000 cycles: 97750156 heartbeat IPC: 0.203869 cumulative IPC: 0.222252 (Simulation time: 0 hr 1 min 37 sec) 
Heartbeat CPU 0 instructions: 60000000 cycles: 153314802 heartbeat IPC: 0.179971 cumulative IPC: 0.206111 (Simulation time: 0 hr 2 min 11 sec) 
Finished CPU 0 instructions: 30000002 cycles: 145552595 cumulative IPC: 0.206111 (Simulation time: 0 hr 2 min 11 sec) 

ChampSim completed all CPUs

Region of Interest Statistics

CPU 0 cumulative IPC: 0.206111 instructions: 30000002 cycles: 145552595
cpu0_DTLB TOTAL     ACCESS:    6723043  HIT:    6680923  MISS:      42120
cpu0_DTLB LOAD      ACCESS:    5965119  HIT:    5923132  MISS:      41987
cpu0_DTLB RFO       ACCESS:     757924  HIT:     757791  MISS:        133
cpu0_DTLB PREFETCH  ACCESS:          0  HIT:          0  MISS:          0
cpu0_DTLB WRITEBACK ACCESS:          0  HIT:          0  MISS:          0
cpu0_DTLB TRANSLATION ACCESS:          0  HIT:          0  MISS:          0
cpu0_DTLB PREFETCH  REQUESTED:          0  ISSUED:          0  USEFUL:          0  USELESS:          0
cpu0_DTLB AVERAGE MISS LATENCY: 65.6955 cycles
cpu0_ITLB TOTAL     ACCESS:    3444641  HIT:    3444641  MISS:          0
cpu0_ITLB LOAD      ACCESS:    3444641  HIT:    3444641  MISS:          0
cpu0_ITLB RFO       ACCESS:          0  HIT:          0  MISS:          0
cpu0_ITLB PREFETCH  ACCESS:          0  HIT:          0  MISS:          0
cpu0_ITLB WRITEBACK ACCESS:          0  HIT:          0  MISS:          0
cpu0_ITLB TRANSLATION ACCESS:          0  HIT:          0  MISS:          0
cpu0_ITLB PREFETCH  REQUESTED:          0  ISSUED:          0  USEFUL:          0  USELESS:          0
cpu0_ITLB AVERAGE MISS LATENCY: -nan cycles
cpu0_L1I TOTAL     ACCESS:         91  HIT:         90  MISS:          1
cpu0_L1I LOAD      ACCESS:         91  HIT:         90  MISS:          1
cpu0_L1I RFO       ACCESS:          0  HIT:          0  MISS:          0
cpu0_L1I PREFETCH  ACCESS:          0  HIT:          0  MISS:          0
cpu0_L1I WRITEBACK ACCESS:          0  HIT:          0  MISS:          0
cpu0_L1I TRANSLATION ACCESS:          0  HIT:          0  MISS:          0
cpu0_L1I PREFETCH  REQUESTED:          0  ISSUED:          0  USEFUL:          0  USELESS:          0
cpu0_L1I AVERAGE MISS LATENCY: 194 cycles
cpu0_STLB TOTAL     ACCESS:      42120  HIT:       3899  MISS:      38221
cpu0_STLB LOAD      ACCESS:      41987  HIT:       3813  MISS:      38174
cpu0_STLB RFO       ACCESS:        133  HIT:         86  MISS:         47
cpu0_STLB PREFETCH  ACCESS:          0  HIT:          0  MISS:          0
cpu0_STLB WRITEBACK ACCESS:          0  HIT:          0  MISS:          0
cpu0_STLB TRANSLATION ACCESS:          0  HIT:          0  MISS:          0
cpu0_STLB PREFETCH  REQUESTED:          0  ISSUED:          0  USEFUL:          0  USELESS:          0
cpu0_STLB AVERAGE MISS LATENCY: 62.479 cycles
cpu0_L1D TOTAL     ACCESS:    7232896  HIT:    6032053  MISS:    1200843
cpu0_L1D LOAD      ACCESS:    5825463  HIT:    4629600  MISS:    1195863
cpu0_L1D RFO       ACCESS:     799475  HIT:     795717  MISS:       3758
cpu0_L1D PREFETCH  ACCESS:          0  HIT:          0  MISS:          0
cpu0_L1D WRITEBACK ACCESS:     569740  HIT:     569740  MISS:          0
cpu0_L1D TRANSLATION ACCESS:      38218  HIT:      36996  MISS:       1222
cpu0_L1D PREFETCH  REQUESTED:          0  ISSUED:          0  USEFUL:          0  USELESS:          0
cpu0_L1D AVERAGE MISS LATENCY: 97.759 cycles
cpu0_L2C TOTAL     ACCESS:    2438024  HIT:     607703  MISS:    1830321
cpu0_L2C LOAD      ACCESS:    1195851  HIT:     565858  MISS:     629993
cpu0_L2C RFO       ACCESS:       3758  HIT:       3202  MISS:        556
cpu0_L2C PREFETCH  ACCESS:          0  HIT:          0  MISS:          0
cpu0_L2C WRITEBACK ACCESS:    1237194  HIT:      37446  MISS:    1199748
cpu0_L2C TRANSLATION ACCESS:       1221  HIT:       1197  MISS:         24
cpu0_L2C PREFETCH  REQUESTED:          0  ISSUED:          0  USEFUL:          0  USELESS:          0
cpu0_L2C AVERAGE MISS LATENCY: 56.8326 cycles
LLC TOTAL     ACCESS:    1830885  HIT:     608758  MISS:    1222127
LLC LOAD      ACCESS:     629987  HIT:      35958  MISS:     594029
LLC RFO       ACCESS:        556  HIT:        543  MISS:         13
LLC PREFETCH  ACCESS:          0  HIT:          0  MISS:          0
LLC WRITEBACK ACCESS:    1200318  HIT:     572256  MISS:     628062
LLC TRANSLATION ACCESS:         24  HIT:          1  MISS:         23
LLC PREFETCH  REQUESTED:          0  ISSUED:          0  USEFUL:          0  USELESS:          0
LLC AVERAGE MISS LATENCY: 74.2554 cycles

DRAM Statistics
 CHANNEL 0
 RQ ROW_BUFFER_HIT:      70883  ROW_BUFFER_MISS:     523182
 DBUS AVG_CONGESTED_CYCLE:    3.48905
 WQ ROW_BUFFER_HIT:      95314  ROW_BUFFER_MISS:      38787  FULL:      10235


CPU 0 Branch Prediction Accuracy: 76.962% MPKI: 46.9029 Average ROB Occupancy at Mispredict: 7.6018
Branch type MPKI
BRANCH_DIRECT_JUMP: 3.33333e-05
BRANCH_INDIRECT: 0
BRANCH_CONDITIONAL: 46.9028
BRANCH_DIRECT_CALL: 3.33333e-05
BRANCH_INDIRECT_CALL: 0
BRANCH_RETURN: 3.33333e-05

