
*** ChampSim Multicore Out-of-Order Simulator ***

Warmup Instructions: 30000000
Simulation Instructions: 30000000
Number of CPUs: 1
Off-chip DRAM Size: 4 GiB Channels: 1 Width: 64-bit Data Rate: 3200 MT/s

VirtualMemory physical capacity: 8588881920 num_ppages: 2096895
VirtualMemory page size: 4096 log2_page_size: 12

CPU 0 runs gap_traces/bfs-3.trace.gz
CPU 0 Bimodal branch predictor
Basic BTB sets: 1024 ways: 8 indirect buffer size: 4096 RAS size: 64
Heartbeat CPU 0 instructions: 10000003 cycles: 2500200 heartbeat IPC: 3.99968 cumulative IPC: 3.99968 (Simulation time: 0 hr 0 min 12 sec) 
Heartbeat CPU 0 instructions: 20000003 cycles: 5135372 heartbeat IPC: 3.79482 cumulative IPC: 3.89456 (Simulation time: 0 hr 0 min 27 sec) 
Heartbeat CPU 0 instructions: 30000002 cycles: 7762209 heartbeat IPC: 3.80686 cumulative IPC: 3.86488 (Simulation time: 0 hr 0 min 42 sec) 

Warmup complete CPU 0 instructions: 30000002 cycles: 7762209 (Simulation time: 0 hr 0 min 42 sec) 

Heartbeat CPU 0 instructions: 40000002 cycles: 49056818 heartbeat IPC: 0.242162 cumulative IPC: 0.242162 (Simulation time: 0 hr 1 min 9 sec) 
Heartbeat CPU 0 instructions: 50000000 cycles: 98763076 heartbeat IPC: 0.201182 cumulative IPC: 0.219778 (Simulation time: 0 hr 1 min 41 sec) 
Heartbeat CPU 0 instructions: 60000000 cycles: 154577851 heartbeat IPC: 0.179164 cumulative IPC: 0.204338 (Simulation time: 0 hr 2 min 16 sec) 
Finished CPU 0 instructions: 30000002 cycles: 146815643 cumulative IPC: 0.204338 (Simulation time: 0 hr 2 min 16 sec) 

ChampSim completed all CPUs

Region of Interest Statistics

CPU 0 cumulative IPC: 0.204338 instructions: 30000002 cycles: 146815643
cpu0_DTLB TOTAL     ACCESS:    6723001  HIT:    6680881  MISS:      42120
cpu0_DTLB LOAD      ACCESS:    5965116  HIT:    5923129  MISS:      41987
cpu0_DTLB RFO       ACCESS:     757885  HIT:     757752  MISS:        133
cpu0_DTLB PREFETCH  ACCESS:          0  HIT:          0  MISS:          0
cpu0_DTLB WRITEBACK ACCESS:          0  HIT:          0  MISS:          0
cpu0_DTLB TRANSLATION ACCESS:          0  HIT:          0  MISS:          0
cpu0_DTLB PREFETCH  REQUESTED:          0  ISSUED:          0  USEFUL:          0  USELESS:          0
cpu0_DTLB AVERAGE MISS LATENCY: 65.7085 cycles
cpu0_ITLB TOTAL     ACCESS:    3444641  HIT:    3444641  MISS:          0
cpu0_ITLB LOAD      ACCESS:    3444641  HIT:    3444641  MISS:          0
cpu0_ITLB RFO       ACCESS:          0  HIT:          0  MISS:          0
cpu0_ITLB PREFETCH  ACCESS:          0  HIT:          0  MISS:          0
cpu0_ITLB WRITEBACK ACCESS:          0  HIT:          0  MISS:          0
cpu0_ITLB TRANSLATION ACCESS:          0  HIT:          0  MISS:          0
cpu0_ITLB PREFETCH  REQUESTED:          0  ISSUED:          0  USEFUL:          0  USELESS:          0
cpu0_ITLB AVERAGE MISS LATENCY: -nan cycles
cpu0_L1I TOTAL     ACCESS:         91  HIT:         90  MISS:          1
cpu0_L1I LOAD      ACCESS:         91  HIT:         90  MISS:          1
cpu0_L1I RFO       ACCESS:          0  HIT:          0  MISS:          0
cpu0_L1I PREFETCH  ACCESS:          0  HIT:          0  MISS:          0
cpu0_L1I WRITEBACK ACCESS:          0  HIT:          0  MISS:          0
cpu0_L1I TRANSLATION ACCESS:          0  HIT:          0  MISS:          0
cpu0_L1I PREFETCH  REQUESTED:          0  ISSUED:          0  USEFUL:          0  USELESS:          0
cpu0_L1I AVERAGE MISS LATENCY: 195 cycles
cpu0_STLB TOTAL     ACCESS:      42120  HIT:       3899  MISS:      38221
cpu0_STLB LOAD      ACCESS:      41987  HIT:       3813  MISS:      38174
cpu0_STLB RFO       ACCESS:        133  HIT:         86  MISS:         47
cpu0_STLB PREFETCH  ACCESS:          0  HIT:          0  MISS:          0
cpu0_STLB WRITEBACK ACCESS:          0  HIT:          0  MISS:          0
cpu0_STLB TRANSLATION ACCESS:          0  HIT:          0  MISS:          0
cpu0_STLB PREFETCH  REQUESTED:          0  ISSUED:          0  USEFUL:          0  USELESS:          0
cpu0_STLB AVERAGE MISS LATENCY: 62.4933 cycles
cpu0_L1D TOTAL     ACCESS:    6662988  HIT:    5462219  MISS:    1200769
cpu0_L1D LOAD      ACCESS:    5825304  HIT:    4629611  MISS:    1195693
cpu0_L1D RFO       ACCESS:     799466  HIT:     795610  MISS:       3856
cpu0_L1D PREFETCH  ACCESS:          0  HIT:          0  MISS:          0
cpu0_L1D WRITEBACK ACCESS:          0  HIT:          0  MISS:          0
cpu0_L1D TRANSLATION ACCESS:      38218  HIT:      36998  MISS:       1220
cpu0_L1D PREFETCH  REQUESTED:          0  ISSUED:          0  USEFUL:          0  USELESS:          0
cpu0_L1D AVERAGE MISS LATENCY: 98.8395 cycles
cpu0_L2C TOTAL     ACCESS:    1300702  HIT:     656864  MISS:     643838
cpu0_L2C LOAD      ACCESS:    1195692  HIT:     563163  MISS:     632529
cpu0_L2C RFO       ACCESS:       3854  HIT:       3282  MISS:        572
cpu0_L2C PREFETCH  ACCESS:          0  HIT:          0  MISS:          0
cpu0_L2C WRITEBACK ACCESS:      99936  HIT:      89242  MISS:      10694
cpu0_L2C TRANSLATION ACCESS:       1220  HIT:       1177  MISS:         43
cpu0_L2C PREFETCH  REQUESTED:          0  ISSUED:          0  USEFUL:          0  USELESS:          0
cpu0_L2C AVERAGE MISS LATENCY: 163.663 cycles
LLC TOTAL     ACCESS:     732968  HIT:      67864  MISS:     665104
LLC LOAD      ACCESS:     632529  HIT:      31828  MISS:     600701
LLC RFO       ACCESS:        572  HIT:        484  MISS:         88
LLC PREFETCH  ACCESS:          0  HIT:          0  MISS:          0
LLC WRITEBACK ACCESS:      99824  HIT:      35533  MISS:      64291
LLC TRANSLATION ACCESS:         43  HIT:         19  MISS:         24
LLC PREFETCH  REQUESTED:          0  ISSUED:          0  USEFUL:          0  USELESS:          0
LLC AVERAGE MISS LATENCY: 138.44 cycles

DRAM Statistics
 CHANNEL 0
 RQ ROW_BUFFER_HIT:      67831  ROW_BUFFER_MISS:     532754
 DBUS AVG_CONGESTED_CYCLE:    3.63367
 WQ ROW_BUFFER_HIT:      90620  ROW_BUFFER_MISS:      63957  FULL:          0


CPU 0 Branch Prediction Accuracy: 76.962% MPKI: 46.9029 Average ROB Occupancy at Mispredict: 7.60248
Branch type MPKI
BRANCH_DIRECT_JUMP: 3.33333e-05
BRANCH_INDIRECT: 0
BRANCH_CONDITIONAL: 46.9028
BRANCH_DIRECT_CALL: 3.33333e-05
BRANCH_INDIRECT_CALL: 0
BRANCH_RETURN: 3.33333e-05

