
*** ChampSim Multicore Out-of-Order Simulator ***

Warmup Instructions: 30000000
Simulation Instructions: 30000000
Number of CPUs: 1
Off-chip DRAM Size: 4 GiB Channels: 1 Width: 64-bit Data Rate: 3200 MT/s

VirtualMemory physical capacity: 8588881920 num_ppages: 2096895
VirtualMemory page size: 4096 log2_page_size: 12

CPU 0 runs gap_traces/cc-6.trace.gz
CPU 0 Bimodal branch predictor
Basic BTB sets: 1024 ways: 8 indirect buffer size: 4096 RAS size: 64
Heartbeat CPU 0 instructions: 10000004 cycles: 2549828 heartbeat IPC: 3.92183 cumulative IPC: 3.92183 (Simulation time: 0 hr 0 min 13 sec) 
Heartbeat CPU 0 instructions: 20000002 cycles: 5242341 heartbeat IPC: 3.714 cumulative IPC: 3.81509 (Simulation time: 0 hr 0 min 28 sec) 
Heartbeat CPU 0 instructions: 30000004 cycles: 8005869 heartbeat IPC: 3.61856 cumulative IPC: 3.74725 (Simulation time: 0 hr 0 min 43 sec) 

Warmup complete CPU 0 instructions: 30000004 cycles: 8005869 (Simulation time: 0 hr 0 min 43 sec) 

Heartbeat CPU 0 instructions: 40000000 cycles: 63683562 heartbeat IPC: 0.179605 cumulative IPC: 0.179605 (Simulation time: 0 hr 1 min 26 sec) 
Heartbeat CPU 0 instructions: 50000000 cycles: 118904928 heartbeat IPC: 0.181089 cumulative IPC: 0.180344 (Simulation time: 0 hr 2 min 10 sec) 
Heartbeat CPU 0 instructions: 60000003 cycles: 174310836 heartbeat IPC: 0.180486 cumulative IPC: 0.180391 (Simulation time: 0 hr 2 min 55 sec) 
Finished CPU 0 instructions: 30000004 cycles: 166304968 cumulative IPC: 0.180392 (Simulation time: 0 hr 2 min 55 sec) 

ChampSim completed all CPUs

Region of Interest Statistics

CPU 0 cumulative IPC: 0.180392 instructions: 30000004 cycles: 166304968
cpu0_DTLB TOTAL     ACCESS:    7963675  HIT:    6385931  MISS:    1577744
cpu0_DTLB LOAD      ACCESS:    7857092  HIT:    6279348  MISS:    1577744
cpu0_DTLB RFO       ACCESS:     106583  HIT:     106583  MISS:          0
cpu0_DTLB PREFETCH  ACCESS:          0  HIT:          0  MISS:          0
cpu0_DTLB WRITEBACK ACCESS:          0  HIT:          0  MISS:          0
cpu0_DTLB TRANSLATION ACCESS:          0  HIT:          0  MISS:          0
cpu0_DTLB PREFETCH  REQUESTED:          0  ISSUED:          0  USEFUL:          0  USELESS:          0
cpu0_DTLB AVERAGE MISS LATENCY: 9.74307 cycles
cpu0_ITLB TOTAL     ACCESS:    3225103  HIT:    3225103  MISS:          0
cpu0_ITLB LOAD      ACCESS:    3225103  HIT:    3225103  MISS:          0
cpu0_ITLB RFO       ACCESS:          0  HIT:          0  MISS:          0
cpu0_ITLB PREFETCH  ACCESS:          0  HIT:          0  MISS:          0
cpu0_ITLB WRITEBACK ACCESS:          0  HIT:          0  MISS:          0
cpu0_ITLB TRANSLATION ACCESS:          0  HIT:          0  MISS:          0
cpu0_ITLB PREFETCH  REQUESTED:          0  ISSUED:          0  USEFUL:          0  USELESS:          0
cpu0_ITLB AVERAGE MISS LATENCY: -nan cycles
cpu0_STLB TOTAL     ACCESS:    1577744  HIT:    1575406  MISS:       2338
cpu0_STLB LOAD      ACCESS:    1577744  HIT:    1575406  MISS:       2338
cpu0_STLB RFO       ACCESS:          0  HIT:          0  MISS:          0
cpu0_STLB PREFETCH  ACCESS:          0  HIT:          0  MISS:          0
cpu0_STLB WRITEBACK ACCESS:          0  HIT:          0  MISS:          0
cpu0_STLB TRANSLATION ACCESS:          0  HIT:          0  MISS:          0
cpu0_STLB PREFETCH  REQUESTED:          0  ISSUED:          0  USEFUL:          0  USELESS:          0
cpu0_STLB AVERAGE MISS LATENCY: 219.267 cycles
cpu0_L1D TOTAL     ACCESS:    7299530  HIT:    4912484  MISS:    2387046
cpu0_L1D LOAD      ACCESS:    6436317  HIT:    4051447  MISS:    2384870
cpu0_L1D RFO       ACCESS:     106932  HIT:     106932  MISS:          0
cpu0_L1D PREFETCH  ACCESS:          0  HIT:          0  MISS:          0
cpu0_L1D WRITEBACK ACCESS:     753943  HIT:     753943  MISS:          0
cpu0_L1D TRANSLATION ACCESS:       2338  HIT:        162  MISS:       2176
cpu0_L1D PREFETCH  REQUESTED:          0  ISSUED:          0  USEFUL:          0  USELESS:          0
cpu0_L1D AVERAGE MISS LATENCY: 98.9851 cycles
cpu0_L2C TOTAL     ACCESS:    5774834  HIT:    1754951  MISS:    4019883
cpu0_L2C LOAD      ACCESS:    2384800  HIT:     751874  MISS:    1632926
cpu0_L2C RFO       ACCESS:          0  HIT:          0  MISS:          0
cpu0_L2C PREFETCH  ACCESS:          0  HIT:          0  MISS:          0
cpu0_L2C WRITEBACK ACCESS:    3387859  HIT:    1001008  MISS:    2386851
cpu0_L2C TRANSLATION ACCESS:       2175  HIT:       2069  MISS:        106
cpu0_L2C PREFETCH  REQUESTED:          0  ISSUED:          0  USEFUL:          0  USELESS:          0
cpu0_L2C AVERAGE MISS LATENCY: 52.1144 cycles
LLC TOTAL     ACCESS:    4019918  HIT:    1752187  MISS:    2267731
LLC LOAD      ACCESS:    1632906  HIT:    1000706  MISS:     632200
LLC RFO       ACCESS:          0  HIT:          0  MISS:          0
LLC PREFETCH  ACCESS:          0  HIT:          0  MISS:          0
LLC WRITEBACK ACCESS:    2386906  HIT:     751376  MISS:    1635530
LLC TRANSLATION ACCESS:        106  HIT:        105  MISS:          1
LLC PREFETCH  REQUESTED:          0  ISSUED:          0  USEFUL:          0  USELESS:          0
LLC AVERAGE MISS LATENCY: 77.258 cycles

DRAM Statistics
 CHANNEL 0
 RQ ROW_BUFFER_HIT:       8324  ROW_BUFFER_MISS:     623497
 DBUS AVG_CONGESTED_CYCLE:    3.99175
 WQ ROW_BUFFER_HIT:      10280  ROW_BUFFER_MISS:    1086105  FULL:      22193


CPU 0 Branch Prediction Accuracy: 84.6764% MPKI: 31.4387 Average ROB Occupancy at Mispredict: 14.6378
Branch type MPKI
BRANCH_DIRECT_JUMP: 0
BRANCH_INDIRECT: 0
BRANCH_CONDITIONAL: 31.4387
BRANCH_DIRECT_CALL: 0
BRANCH_INDIRECT_CALL: 0
BRANCH_RETURN: 0

