
*** ChampSim Multicore Out-of-Order Simulator ***

Warmup Instructions: 30000000
Simulation Instructions: 30000000
Number of CPUs: 1
Off-chip DRAM Size: 4 GiB Channels: 1 Width: 64-bit Data Rate: 3200 MT/s

VirtualMemory physical capacity: 8588881920 num_ppages: 2096895
VirtualMemory page size: 4096 log2_page_size: 12

CPU 0 runs gap_traces/cc-6.trace.gz
CPU 0 Bimodal branch predictor
Basic BTB sets: 1024 ways: 8 indirect buffer size: 4096 RAS size: 64
Heartbeat CPU 0 instructions: 10000004 cycles: 2549823 heartbeat IPC: 3.92184 cumulative IPC: 3.92184 (Simulation time: 0 hr 0 min 12 sec) 
Heartbeat CPU 0 instructions: 20000002 cycles: 5242339 heartbeat IPC: 3.714 cumulative IPC: 3.81509 (Simulation time: 0 hr 0 min 26 sec) 
Heartbeat CPU 0 instructions: 30000004 cycles: 8005864 heartbeat IPC: 3.61857 cumulative IPC: 3.74725 (Simulation time: 0 hr 0 min 41 sec) 

Warmup complete CPU 0 instructions: 30000004 cycles: 8005864 (Simulation time: 0 hr 0 min 41 sec) 

Heartbeat CPU 0 instructions: 40000000 cycles: 55702395 heartbeat IPC: 0.209659 cumulative IPC: 0.209659 (Simulation time: 0 hr 1 min 16 sec) 
Heartbeat CPU 0 instructions: 50000000 cycles: 103030169 heartbeat IPC: 0.211292 cumulative IPC: 0.210472 (Simulation time: 0 hr 1 min 52 sec) 
Heartbeat CPU 0 instructions: 60000003 cycles: 149257636 heartbeat IPC: 0.216322 cumulative IPC: 0.212387 (Simulation time: 0 hr 2 min 27 sec) 
Finished CPU 0 instructions: 30000004 cycles: 141251773 cumulative IPC: 0.212387 (Simulation time: 0 hr 2 min 27 sec) 

ChampSim completed all CPUs

Region of Interest Statistics

CPU 0 cumulative IPC: 0.212387 instructions: 30000004 cycles: 141251773
cpu0_DTLB TOTAL     ACCESS:    7961572  HIT:    6383830  MISS:    1577742
cpu0_DTLB LOAD      ACCESS:    7854982  HIT:    6277240  MISS:    1577742
cpu0_DTLB RFO       ACCESS:     106590  HIT:     106590  MISS:          0
cpu0_DTLB PREFETCH  ACCESS:          0  HIT:          0  MISS:          0
cpu0_DTLB WRITEBACK ACCESS:          0  HIT:          0  MISS:          0
cpu0_DTLB TRANSLATION ACCESS:          0  HIT:          0  MISS:          0
cpu0_DTLB PREFETCH  REQUESTED:          0  ISSUED:          0  USEFUL:          0  USELESS:          0
cpu0_DTLB AVERAGE MISS LATENCY: 9.75547 cycles
cpu0_ITLB TOTAL     ACCESS:    3224938  HIT:    3224938  MISS:          0
cpu0_ITLB LOAD      ACCESS:    3224938  HIT:    3224938  MISS:          0
cpu0_ITLB RFO       ACCESS:          0  HIT:          0  MISS:          0
cpu0_ITLB PREFETCH  ACCESS:          0  HIT:          0  MISS:          0
cpu0_ITLB WRITEBACK ACCESS:          0  HIT:          0  MISS:          0
cpu0_ITLB TRANSLATION ACCESS:          0  HIT:          0  MISS:          0
cpu0_ITLB PREFETCH  REQUESTED:          0  ISSUED:          0  USEFUL:          0  USELESS:          0
cpu0_ITLB AVERAGE MISS LATENCY: -nan cycles
cpu0_STLB TOTAL     ACCESS:    1577742  HIT:    1575404  MISS:       2338
cpu0_STLB LOAD      ACCESS:    1577742  HIT:    1575404  MISS:       2338
cpu0_STLB RFO       ACCESS:          0  HIT:          0  MISS:          0
cpu0_STLB PREFETCH  ACCESS:          0  HIT:          0  MISS:          0
cpu0_STLB WRITEBACK ACCESS:          0  HIT:          0  MISS:          0
cpu0_STLB TRANSLATION ACCESS:          0  HIT:          0  MISS:          0
cpu0_STLB PREFETCH  REQUESTED:          0  ISSUED:          0  USEFUL:          0  USELESS:          0
cpu0_STLB AVERAGE MISS LATENCY: 226.071 cycles
cpu0_L1D TOTAL     ACCESS:    6541607  HIT:    4154448  MISS:    2387159
cpu0_L1D LOAD      ACCESS:    6432337  HIT:    4047355  MISS:    2384982
cpu0_L1D RFO       ACCESS:     106932  HIT:     106932  MISS:          0
cpu0_L1D PREFETCH  ACCESS:          0  HIT:          0  MISS:          0
cpu0_L1D WRITEBACK ACCESS:          0  HIT:          0  MISS:          0
cpu0_L1D TRANSLATION ACCESS:       2338  HIT:        161  MISS:       2177
cpu0_L1D PREFETCH  REQUESTED:          0  ISSUED:          0  USEFUL:          0  USELESS:          0
cpu0_L1D AVERAGE MISS LATENCY: 73.4682 cycles
cpu0_L2C TOTAL     ACCESS:    2475192  HIT:     821127  MISS:    1654065
cpu0_L2C LOAD      ACCESS:    2384976  HIT:     731362  MISS:    1653614
cpu0_L2C RFO       ACCESS:          0  HIT:          0  MISS:          0
cpu0_L2C PREFETCH  ACCESS:          0  HIT:          0  MISS:          0
cpu0_L2C WRITEBACK ACCESS:      88039  HIT:      87694  MISS:        345
cpu0_L2C TRANSLATION ACCESS:       2177  HIT:       2071  MISS:        106
cpu0_L2C PREFETCH  REQUESTED:          0  ISSUED:          0  USEFUL:          0  USELESS:          0
cpu0_L2C AVERAGE MISS LATENCY: 89.8254 cycles
LLC TOTAL     ACCESS:    1741413  HIT:    1101821  MISS:     639592
LLC LOAD      ACCESS:    1653614  HIT:    1016398  MISS:     637216
LLC RFO       ACCESS:          0  HIT:          0  MISS:          0
LLC PREFETCH  ACCESS:          0  HIT:          0  MISS:          0
LLC WRITEBACK ACCESS:      87693  HIT:      85416  MISS:       2277
LLC TRANSLATION ACCESS:        106  HIT:          7  MISS:         99
LLC PREFETCH  REQUESTED:          0  ISSUED:          0  USEFUL:          0  USELESS:          0
LLC AVERAGE MISS LATENCY: 178.002 cycles

DRAM Statistics
 CHANNEL 0
 RQ ROW_BUFFER_HIT:      13471  ROW_BUFFER_MISS:     623823
 DBUS AVG_CONGESTED_CYCLE:    3.70539
 WQ ROW_BUFFER_HIT:      41521  ROW_BUFFER_MISS:      42742  FULL:          0


CPU 0 Branch Prediction Accuracy: 84.6764% MPKI: 31.4387 Average ROB Occupancy at Mispredict: 14.6395
Branch type MPKI
BRANCH_DIRECT_JUMP: 0
BRANCH_INDIRECT: 0
BRANCH_CONDITIONAL: 31.4387
BRANCH_DIRECT_CALL: 0
BRANCH_INDIRECT_CALL: 0
BRANCH_RETURN: 0

