
*** ChampSim Multicore Out-of-Order Simulator ***

Warmup Instructions: 30000000
Simulation Instructions: 30000000
Number of CPUs: 1
Off-chip DRAM Size: 4 GiB Channels: 1 Width: 64-bit Data Rate: 3200 MT/s

VirtualMemory physical capacity: 8588881920 num_ppages: 2096895
VirtualMemory page size: 4096 log2_page_size: 12

CPU 0 runs gap_traces/cc-6.trace.gz
CPU 0 Bimodal branch predictor
Basic BTB sets: 1024 ways: 8 indirect buffer size: 4096 RAS size: 64
Heartbeat CPU 0 instructions: 10000004 cycles: 2549823 heartbeat IPC: 3.92184 cumulative IPC: 3.92184 (Simulation time: 0 hr 0 min 13 sec) 
Heartbeat CPU 0 instructions: 20000002 cycles: 5242337 heartbeat IPC: 3.714 cumulative IPC: 3.81509 (Simulation time: 0 hr 0 min 27 sec) 
Heartbeat CPU 0 instructions: 30000004 cycles: 8005862 heartbeat IPC: 3.61857 cumulative IPC: 3.74725 (Simulation time: 0 hr 0 min 42 sec) 

Warmup complete CPU 0 instructions: 30000004 cycles: 8005862 (Simulation time: 0 hr 0 min 42 sec) 

Heartbeat CPU 0 instructions: 40000000 cycles: 55546134 heartbeat IPC: 0.210348 cumulative IPC: 0.210348 (Simulation time: 0 hr 1 min 18 sec) 
Heartbeat CPU 0 instructions: 50000000 cycles: 102715953 heartbeat IPC: 0.212 cumulative IPC: 0.211171 (Simulation time: 0 hr 1 min 53 sec) 
Heartbeat CPU 0 instructions: 60000003 cycles: 148696426 heartbeat IPC: 0.217484 cumulative IPC: 0.213234 (Simulation time: 0 hr 2 min 29 sec) 
Finished CPU 0 instructions: 30000004 cycles: 140690565 cumulative IPC: 0.213234 (Simulation time: 0 hr 2 min 29 sec) 

ChampSim completed all CPUs

Region of Interest Statistics

CPU 0 cumulative IPC: 0.213234 instructions: 30000004 cycles: 140690565
cpu0_DTLB TOTAL     ACCESS:    7959727  HIT:    6382006  MISS:    1577721
cpu0_DTLB LOAD      ACCESS:    7853149  HIT:    6275428  MISS:    1577721
cpu0_DTLB RFO       ACCESS:     106578  HIT:     106578  MISS:          0
cpu0_DTLB PREFETCH  ACCESS:          0  HIT:          0  MISS:          0
cpu0_DTLB WRITEBACK ACCESS:          0  HIT:          0  MISS:          0
cpu0_DTLB TRANSLATION ACCESS:          0  HIT:          0  MISS:          0
cpu0_DTLB PREFETCH  REQUESTED:          0  ISSUED:          0  USEFUL:          0  USELESS:          0
cpu0_DTLB AVERAGE MISS LATENCY: 9.74544 cycles
cpu0_ITLB TOTAL     ACCESS:    3225453  HIT:    3225453  MISS:          0
cpu0_ITLB LOAD      ACCESS:    3225453  HIT:    3225453  MISS:          0
cpu0_ITLB RFO       ACCESS:          0  HIT:          0  MISS:          0
cpu0_ITLB PREFETCH  ACCESS:          0  HIT:          0  MISS:          0
cpu0_ITLB WRITEBACK ACCESS:          0  HIT:          0  MISS:          0
cpu0_ITLB TRANSLATION ACCESS:          0  HIT:          0  MISS:          0
cpu0_ITLB PREFETCH  REQUESTED:          0  ISSUED:          0  USEFUL:          0  USELESS:          0
cpu0_ITLB AVERAGE MISS LATENCY: -nan cycles
cpu0_STLB TOTAL     ACCESS:    1577721  HIT:    1575383  MISS:       2338
cpu0_STLB LOAD      ACCESS:    1577721  HIT:    1575383  MISS:       2338
cpu0_STLB RFO       ACCESS:          0  HIT:          0  MISS:          0
cpu0_STLB PREFETCH  ACCESS:          0  HIT:          0  MISS:          0
cpu0_STLB WRITEBACK ACCESS:          0  HIT:          0  MISS:          0
cpu0_STLB TRANSLATION ACCESS:          0  HIT:          0  MISS:          0
cpu0_STLB PREFETCH  REQUESTED:          0  ISSUED:          0  USEFUL:          0  USELESS:          0
cpu0_STLB AVERAGE MISS LATENCY: 219.209 cycles
cpu0_L1D TOTAL     ACCESS:    6537738  HIT:    4150681  MISS:    2387057
cpu0_L1D LOAD      ACCESS:    6428468  HIT:    4043589  MISS:    2384879
cpu0_L1D RFO       ACCESS:     106932  HIT:     106932  MISS:          0
cpu0_L1D PREFETCH  ACCESS:          0  HIT:          0  MISS:          0
cpu0_L1D WRITEBACK ACCESS:          0  HIT:          0  MISS:          0
cpu0_L1D TRANSLATION ACCESS:       2338  HIT:        160  MISS:       2178
cpu0_L1D PREFETCH  REQUESTED:          0  ISSUED:          0  USEFUL:          0  USELESS:          0
cpu0_L1D AVERAGE MISS LATENCY: 72.7501 cycles
cpu0_L2C TOTAL     ACCESS:    2475023  HIT:     821144  MISS:    1653879
cpu0_L2C LOAD      ACCESS:    2384879  HIT:     731416  MISS:    1653463
cpu0_L2C RFO       ACCESS:          0  HIT:          0  MISS:          0
cpu0_L2C PREFETCH  ACCESS:          0  HIT:          0  MISS:          0
cpu0_L2C WRITEBACK ACCESS:      87966  HIT:      87656  MISS:        310
cpu0_L2C TRANSLATION ACCESS:       2178  HIT:       2072  MISS:        106
cpu0_L2C PREFETCH  REQUESTED:          0  ISSUED:          0  USEFUL:          0  USELESS:          0
cpu0_L2C AVERAGE MISS LATENCY: 88.7944 cycles
LLC TOTAL     ACCESS:    1741256  HIT:    1109115  MISS:     632141
LLC LOAD      ACCESS:    1653462  HIT:    1023976  MISS:     629486
LLC RFO       ACCESS:          0  HIT:          0  MISS:          0
LLC PREFETCH  ACCESS:          0  HIT:          0  MISS:          0
LLC WRITEBACK ACCESS:      87688  HIT:      85033  MISS:       2655
LLC TRANSLATION ACCESS:        106  HIT:        106  MISS:          0
LLC PREFETCH  REQUESTED:          0  ISSUED:          0  USEFUL:          0  USELESS:          0
LLC AVERAGE MISS LATENCY: 177.382 cycles

DRAM Statistics
 CHANNEL 0
 RQ ROW_BUFFER_HIT:      13276  ROW_BUFFER_MISS:     616203
 DBUS AVG_CONGESTED_CYCLE:    3.69665
 WQ ROW_BUFFER_HIT:      39912  ROW_BUFFER_MISS:      40738  FULL:          0


CPU 0 Branch Prediction Accuracy: 84.6764% MPKI: 31.4387 Average ROB Occupancy at Mispredict: 14.6399
Branch type MPKI
BRANCH_DIRECT_JUMP: 0
BRANCH_INDIRECT: 0
BRANCH_CONDITIONAL: 31.4387
BRANCH_DIRECT_CALL: 0
BRANCH_INDIRECT_CALL: 0
BRANCH_RETURN: 0

