
*** ChampSim Multicore Out-of-Order Simulator ***

Warmup Instructions: 30000000
Simulation Instructions: 30000000
Number of CPUs: 1
Off-chip DRAM Size: 4 GiB Channels: 1 Width: 64-bit Data Rate: 3200 MT/s

VirtualMemory physical capacity: 8588881920 num_ppages: 2096895
VirtualMemory page size: 4096 log2_page_size: 12

CPU 0 runs gap_traces/cc-6.trace.gz
CPU 0 Bimodal branch predictor
Basic BTB sets: 1024 ways: 8 indirect buffer size: 4096 RAS size: 64
Heartbeat CPU 0 instructions: 10000004 cycles: 2549820 heartbeat IPC: 3.92185 cumulative IPC: 3.92185 (Simulation time: 0 hr 0 min 12 sec) 
Heartbeat CPU 0 instructions: 20000001 cycles: 5242336 heartbeat IPC: 3.714 cumulative IPC: 3.81509 (Simulation time: 0 hr 0 min 27 sec) 
Heartbeat CPU 0 instructions: 30000004 cycles: 8005858 heartbeat IPC: 3.61857 cumulative IPC: 3.74726 (Simulation time: 0 hr 0 min 42 sec) 

Warmup complete CPU 0 instructions: 30000004 cycles: 8005858 (Simulation time: 0 hr 0 min 42 sec) 

Heartbeat CPU 0 instructions: 40000000 cycles: 58747967 heartbeat IPC: 0.197075 cumulative IPC: 0.197075 (Simulation time: 0 hr 1 min 19 sec) 
Heartbeat CPU 0 instructions: 50000000 cycles: 109144735 heartbeat IPC: 0.198425 cumulative IPC: 0.197748 (Simulation time: 0 hr 1 min 57 sec) 
Heartbeat CPU 0 instructions: 60000003 cycles: 158329751 heartbeat IPC: 0.203314 cumulative IPC: 0.199569 (Simulation time: 0 hr 2 min 35 sec) 
Finished CPU 0 instructions: 30000004 cycles: 150323894 cumulative IPC: 0.199569 (Simulation time: 0 hr 2 min 35 sec) 

ChampSim completed all CPUs

Region of Interest Statistics

CPU 0 cumulative IPC: 0.199569 instructions: 30000004 cycles: 150323894
cpu0_DTLB TOTAL     ACCESS:    7977934  HIT:    6400172  MISS:    1577762
cpu0_DTLB LOAD      ACCESS:    7871358  HIT:    6293596  MISS:    1577762
cpu0_DTLB RFO       ACCESS:     106576  HIT:     106576  MISS:          0
cpu0_DTLB PREFETCH  ACCESS:          0  HIT:          0  MISS:          0
cpu0_DTLB WRITEBACK ACCESS:          0  HIT:          0  MISS:          0
cpu0_DTLB TRANSLATION ACCESS:          0  HIT:          0  MISS:          0
cpu0_DTLB PREFETCH  REQUESTED:          0  ISSUED:          0  USEFUL:          0  USELESS:          0
cpu0_DTLB AVERAGE MISS LATENCY: 9.7448 cycles
cpu0_ITLB TOTAL     ACCESS:    3221133  HIT:    3221133  MISS:          0
cpu0_ITLB LOAD      ACCESS:    3221133  HIT:    3221133  MISS:          0
cpu0_ITLB RFO       ACCESS:          0  HIT:          0  MISS:          0
cpu0_ITLB PREFETCH  ACCESS:          0  HIT:          0  MISS:          0
cpu0_ITLB WRITEBACK ACCESS:          0  HIT:          0  MISS:          0
cpu0_ITLB TRANSLATION ACCESS:          0  HIT:          0  MISS:          0
cpu0_ITLB PREFETCH  REQUESTED:          0  ISSUED:          0  USEFUL:          0  USELESS:          0
cpu0_ITLB AVERAGE MISS LATENCY: -nan cycles
cpu0_STLB TOTAL     ACCESS:    1577762  HIT:    1575424  MISS:       2338
cpu0_STLB LOAD      ACCESS:    1577762  HIT:    1575424  MISS:       2338
cpu0_STLB RFO       ACCESS:          0  HIT:          0  MISS:          0
cpu0_STLB PREFETCH  ACCESS:          0  HIT:          0  MISS:          0
cpu0_STLB WRITEBACK ACCESS:          0  HIT:          0  MISS:          0
cpu0_STLB TRANSLATION ACCESS:          0  HIT:          0  MISS:          0
cpu0_STLB PREFETCH  REQUESTED:          0  ISSUED:          0  USEFUL:          0  USELESS:          0
cpu0_STLB AVERAGE MISS LATENCY: 219.199 cycles
cpu0_L1D TOTAL     ACCESS:    6566995  HIT:    4179967  MISS:    2387028
cpu0_L1D LOAD      ACCESS:    6457725  HIT:    4072873  MISS:    2384852
cpu0_L1D RFO       ACCESS:     106932  HIT:     106932  MISS:          0
cpu0_L1D PREFETCH  ACCESS:          0  HIT:          0  MISS:          0
cpu0_L1D WRITEBACK ACCESS:          0  HIT:          0  MISS:          0
cpu0_L1D TRANSLATION ACCESS:       2338  HIT:        162  MISS:       2176
cpu0_L1D PREFETCH  REQUESTED:          0  ISSUED:          0  USEFUL:          0  USELESS:          0
cpu0_L1D AVERAGE MISS LATENCY: 82.6674 cycles
cpu0_L2C TOTAL     ACCESS:    2474987  HIT:     821405  MISS:    1653582
cpu0_L2C LOAD      ACCESS:    2384852  HIT:     731395  MISS:    1653457
cpu0_L2C RFO       ACCESS:          0  HIT:          0  MISS:          0
cpu0_L2C PREFETCH  ACCESS:          0  HIT:          0  MISS:          0
cpu0_L2C WRITEBACK ACCESS:      87959  HIT:      87940  MISS:         19
cpu0_L2C TRANSLATION ACCESS:       2176  HIT:       2070  MISS:        106
cpu0_L2C PREFETCH  REQUESTED:          0  ISSUED:          0  USEFUL:          0  USELESS:          0
cpu0_L2C AVERAGE MISS LATENCY: 103.13 cycles
LLC TOTAL     ACCESS:    1741233  HIT:    1000729  MISS:     740504
LLC LOAD      ACCESS:    1653457  HIT:     913177  MISS:     740280
LLC RFO       ACCESS:          0  HIT:          0  MISS:          0
LLC PREFETCH  ACCESS:          0  HIT:          0  MISS:          0
LLC WRITEBACK ACCESS:      87670  HIT:      87446  MISS:        224
LLC TRANSLATION ACCESS:        106  HIT:        106  MISS:          0
LLC PREFETCH  REQUESTED:          0  ISSUED:          0  USEFUL:          0  USELESS:          0
LLC AVERAGE MISS LATENCY: 183.401 cycles

DRAM Statistics
 CHANNEL 0
 RQ ROW_BUFFER_HIT:      16194  ROW_BUFFER_MISS:     724055
 DBUS AVG_CONGESTED_CYCLE:    3.74215
 WQ ROW_BUFFER_HIT:      45145  ROW_BUFFER_MISS:      39530  FULL:          0


CPU 0 Branch Prediction Accuracy: 84.6764% MPKI: 31.4387 Average ROB Occupancy at Mispredict: 14.6408
Branch type MPKI
BRANCH_DIRECT_JUMP: 0
BRANCH_INDIRECT: 0
BRANCH_CONDITIONAL: 31.4387
BRANCH_DIRECT_CALL: 0
BRANCH_INDIRECT_CALL: 0
BRANCH_RETURN: 0

