
*** ChampSim Multicore Out-of-Order Simulator ***

Warmup Instructions: 30000000
Simulation Instructions: 30000000
Number of CPUs: 1
Off-chip DRAM Size: 4 GiB Channels: 1 Width: 64-bit Data Rate: 3200 MT/s

VirtualMemory physical capacity: 8588881920 num_ppages: 2096895
VirtualMemory page size: 4096 log2_page_size: 12

CPU 0 runs gap_traces/cc-6.trace.gz
CPU 0 Bimodal branch predictor
Basic BTB sets: 1024 ways: 8 indirect buffer size: 4096 RAS size: 64
Heartbeat CPU 0 instructions: 10000004 cycles: 2549821 heartbeat IPC: 3.92185 cumulative IPC: 3.92185 (Simulation time: 0 hr 0 min 12 sec) 
Heartbeat CPU 0 instructions: 20000001 cycles: 5242336 heartbeat IPC: 3.714 cumulative IPC: 3.81509 (Simulation time: 0 hr 0 min 27 sec) 
Heartbeat CPU 0 instructions: 30000004 cycles: 8005861 heartbeat IPC: 3.61857 cumulative IPC: 3.74726 (Simulation time: 0 hr 0 min 43 sec) 

Warmup complete CPU 0 instructions: 30000004 cycles: 8005861 (Simulation time: 0 hr 0 min 43 sec) 

Heartbeat CPU 0 instructions: 40000000 cycles: 63981735 heartbeat IPC: 0.178648 cumulative IPC: 0.178648 (Simulation time: 0 hr 1 min 26 sec) 
Heartbeat CPU 0 instructions: 50000000 cycles: 119533052 heartbeat IPC: 0.180014 cumulative IPC: 0.179328 (Simulation time: 0 hr 2 min 9 sec) 
Heartbeat CPU 0 instructions: 60000003 cycles: 175235836 heartbeat IPC: 0.179524 cumulative IPC: 0.179394 (Simulation time: 0 hr 2 min 55 sec) 
Finished CPU 0 instructions: 30000004 cycles: 167229976 cumulative IPC: 0.179394 (Simulation time: 0 hr 2 min 55 sec) 

ChampSim completed all CPUs

Region of Interest Statistics

CPU 0 cumulative IPC: 0.179394 instructions: 30000004 cycles: 167229976
cpu0_DTLB TOTAL     ACCESS:    7964761  HIT:    6387019  MISS:    1577742
cpu0_DTLB LOAD      ACCESS:    7858186  HIT:    6280444  MISS:    1577742
cpu0_DTLB RFO       ACCESS:     106575  HIT:     106575  MISS:          0
cpu0_DTLB PREFETCH  ACCESS:          0  HIT:          0  MISS:          0
cpu0_DTLB WRITEBACK ACCESS:          0  HIT:          0  MISS:          0
cpu0_DTLB TRANSLATION ACCESS:          0  HIT:          0  MISS:          0
cpu0_DTLB PREFETCH  REQUESTED:          0  ISSUED:          0  USEFUL:          0  USELESS:          0
cpu0_DTLB AVERAGE MISS LATENCY: 9.74299 cycles
cpu0_ITLB TOTAL     ACCESS:    3224897  HIT:    3224897  MISS:          0
cpu0_ITLB LOAD      ACCESS:    3224897  HIT:    3224897  MISS:          0
cpu0_ITLB RFO       ACCESS:          0  HIT:          0  MISS:          0
cpu0_ITLB PREFETCH  ACCESS:          0  HIT:          0  MISS:          0
cpu0_ITLB WRITEBACK ACCESS:          0  HIT:          0  MISS:          0
cpu0_ITLB TRANSLATION ACCESS:          0  HIT:          0  MISS:          0
cpu0_ITLB PREFETCH  REQUESTED:          0  ISSUED:          0  USEFUL:          0  USELESS:          0
cpu0_ITLB AVERAGE MISS LATENCY: -nan cycles
cpu0_STLB TOTAL     ACCESS:    1577742  HIT:    1575404  MISS:       2338
cpu0_STLB LOAD      ACCESS:    1577742  HIT:    1575404  MISS:       2338
cpu0_STLB RFO       ACCESS:          0  HIT:          0  MISS:          0
cpu0_STLB PREFETCH  ACCESS:          0  HIT:          0  MISS:          0
cpu0_STLB WRITEBACK ACCESS:          0  HIT:          0  MISS:          0
cpu0_STLB TRANSLATION ACCESS:          0  HIT:          0  MISS:          0
cpu0_STLB PREFETCH  REQUESTED:          0  ISSUED:          0  USEFUL:          0  USELESS:          0
cpu0_STLB AVERAGE MISS LATENCY: 219.195 cycles
cpu0_L1D TOTAL     ACCESS:    7300909  HIT:    4913868  MISS:    2387041
cpu0_L1D LOAD      ACCESS:    6437596  HIT:    4052731  MISS:    2384865
cpu0_L1D RFO       ACCESS:     106932  HIT:     106932  MISS:          0
cpu0_L1D PREFETCH  ACCESS:          0  HIT:          0  MISS:          0
cpu0_L1D WRITEBACK ACCESS:     754043  HIT:     754043  MISS:          0
cpu0_L1D TRANSLATION ACCESS:       2338  HIT:        162  MISS:       2176
cpu0_L1D PREFETCH  REQUESTED:          0  ISSUED:          0  USEFUL:          0  USELESS:          0
cpu0_L1D AVERAGE MISS LATENCY: 99.9472 cycles
cpu0_L2C TOTAL     ACCESS:    5769163  HIT:    1749374  MISS:    4019789
cpu0_L2C LOAD      ACCESS:    2384803  HIT:     751974  MISS:    1632829
cpu0_L2C RFO       ACCESS:          0  HIT:          0  MISS:          0
cpu0_L2C PREFETCH  ACCESS:          0  HIT:          0  MISS:          0
cpu0_L2C WRITEBACK ACCESS:    3382185  HIT:     995331  MISS:    2386854
cpu0_L2C TRANSLATION ACCESS:       2175  HIT:       2069  MISS:        106
cpu0_L2C PREFETCH  REQUESTED:          0  ISSUED:          0  USEFUL:          0  USELESS:          0
cpu0_L2C AVERAGE MISS LATENCY: 52.6869 cycles
LLC TOTAL     ACCESS:    4019824  HIT:    1739246  MISS:    2280578
LLC LOAD      ACCESS:    1632808  HIT:     995036  MISS:     637772
LLC RFO       ACCESS:          0  HIT:          0  MISS:          0
LLC PREFETCH  ACCESS:          0  HIT:          0  MISS:          0
LLC WRITEBACK ACCESS:    2386910  HIT:     744104  MISS:    1642806
LLC TRANSLATION ACCESS:        106  HIT:        106  MISS:          0
LLC PREFETCH  REQUESTED:          0  ISSUED:          0  USEFUL:          0  USELESS:          0
LLC AVERAGE MISS LATENCY: 77.8306 cycles

DRAM Statistics
 CHANNEL 0
 RQ ROW_BUFFER_HIT:       8485  ROW_BUFFER_MISS:     628853
 DBUS AVG_CONGESTED_CYCLE:    3.99162
 WQ ROW_BUFFER_HIT:       9127  ROW_BUFFER_MISS:    1091178  FULL:      23202


CPU 0 Branch Prediction Accuracy: 84.6764% MPKI: 31.4387 Average ROB Occupancy at Mispredict: 14.6379
Branch type MPKI
BRANCH_DIRECT_JUMP: 0
BRANCH_INDIRECT: 0
BRANCH_CONDITIONAL: 31.4387
BRANCH_DIRECT_CALL: 0
BRANCH_INDIRECT_CALL: 0
BRANCH_RETURN: 0

