
*** ChampSim Multicore Out-of-Order Simulator ***

Warmup Instructions: 30000000
Simulation Instructions: 30000000
Number of CPUs: 1
Off-chip DRAM Size: 4 GiB Channels: 1 Width: 64-bit Data Rate: 3200 MT/s

VirtualMemory physical capacity: 8588881920 num_ppages: 2096895
VirtualMemory page size: 4096 log2_page_size: 12

CPU 0 runs gap_traces/cc-6.trace.gz
CPU 0 Bimodal branch predictor
Basic BTB sets: 1024 ways: 8 indirect buffer size: 4096 RAS size: 64
Heartbeat CPU 0 instructions: 10000004 cycles: 2549830 heartbeat IPC: 3.92183 cumulative IPC: 3.92183 (Simulation time: 0 hr 0 min 12 sec) 
Heartbeat CPU 0 instructions: 20000002 cycles: 5242342 heartbeat IPC: 3.714 cumulative IPC: 3.81509 (Simulation time: 0 hr 0 min 27 sec) 
Heartbeat CPU 0 instructions: 30000004 cycles: 8005867 heartbeat IPC: 3.61857 cumulative IPC: 3.74725 (Simulation time: 0 hr 0 min 42 sec) 

Warmup complete CPU 0 instructions: 30000004 cycles: 8005867 (Simulation time: 0 hr 0 min 42 sec) 

Heartbeat CPU 0 instructions: 40000000 cycles: 66653275 heartbeat IPC: 0.17051 cumulative IPC: 0.17051 (Simulation time: 0 hr 1 min 26 sec) 
Heartbeat CPU 0 instructions: 50000000 cycles: 124904582 heartbeat IPC: 0.17167 cumulative IPC: 0.171088 (Simulation time: 0 hr 2 min 11 sec) 
Heartbeat CPU 0 instructions: 60000003 cycles: 183259707 heartbeat IPC: 0.171365 cumulative IPC: 0.17118 (Simulation time: 0 hr 2 min 58 sec) 
Finished CPU 0 instructions: 30000004 cycles: 175253841 cumulative IPC: 0.17118 (Simulation time: 0 hr 2 min 58 sec) 

ChampSim completed all CPUs

Region of Interest Statistics

CPU 0 cumulative IPC: 0.17118 instructions: 30000004 cycles: 175253841
cpu0_DTLB TOTAL     ACCESS:    7977901  HIT:    6400149  MISS:    1577752
cpu0_DTLB LOAD      ACCESS:    7871341  HIT:    6293589  MISS:    1577752
cpu0_DTLB RFO       ACCESS:     106560  HIT:     106560  MISS:          0
cpu0_DTLB PREFETCH  ACCESS:          0  HIT:          0  MISS:          0
cpu0_DTLB WRITEBACK ACCESS:          0  HIT:          0  MISS:          0
cpu0_DTLB TRANSLATION ACCESS:          0  HIT:          0  MISS:          0
cpu0_DTLB PREFETCH  REQUESTED:          0  ISSUED:          0  USEFUL:          0  USELESS:          0
cpu0_DTLB AVERAGE MISS LATENCY: 9.74272 cycles
cpu0_ITLB TOTAL     ACCESS:    3221709  HIT:    3221709  MISS:          0
cpu0_ITLB LOAD      ACCESS:    3221709  HIT:    3221709  MISS:          0
cpu0_ITLB RFO       ACCESS:          0  HIT:          0  MISS:          0
cpu0_ITLB PREFETCH  ACCESS:          0  HIT:          0  MISS:          0
cpu0_ITLB WRITEBACK ACCESS:          0  HIT:          0  MISS:          0
cpu0_ITLB TRANSLATION ACCESS:          0  HIT:          0  MISS:          0
cpu0_ITLB PREFETCH  REQUESTED:          0  ISSUED:          0  USEFUL:          0  USELESS:          0
cpu0_ITLB AVERAGE MISS LATENCY: -nan cycles
cpu0_STLB TOTAL     ACCESS:    1577752  HIT:    1575414  MISS:       2338
cpu0_STLB LOAD      ACCESS:    1577752  HIT:    1575414  MISS:       2338
cpu0_STLB RFO       ACCESS:          0  HIT:          0  MISS:          0
cpu0_STLB PREFETCH  ACCESS:          0  HIT:          0  MISS:          0
cpu0_STLB WRITEBACK ACCESS:          0  HIT:          0  MISS:          0
cpu0_STLB TRANSLATION ACCESS:          0  HIT:          0  MISS:          0
cpu0_STLB PREFETCH  REQUESTED:          0  ISSUED:          0  USEFUL:          0  USELESS:          0
cpu0_STLB AVERAGE MISS LATENCY: 219.459 cycles
cpu0_L1D TOTAL     ACCESS:    7323436  HIT:    4936399  MISS:    2387037
cpu0_L1D LOAD      ACCESS:    6458245  HIT:    4073384  MISS:    2384861
cpu0_L1D RFO       ACCESS:     106932  HIT:     106932  MISS:          0
cpu0_L1D PREFETCH  ACCESS:          0  HIT:          0  MISS:          0
cpu0_L1D WRITEBACK ACCESS:     755921  HIT:     755921  MISS:          0
cpu0_L1D TRANSLATION ACCESS:       2338  HIT:        162  MISS:       2176
cpu0_L1D PREFETCH  REQUESTED:          0  ISSUED:          0  USEFUL:          0  USELESS:          0
cpu0_L1D AVERAGE MISS LATENCY: 110.073 cycles
cpu0_L2C TOTAL     ACCESS:    5688365  HIT:    1670442  MISS:    4017923
cpu0_L2C LOAD      ACCESS:    2384801  HIT:     753849  MISS:    1630952
cpu0_L2C RFO       ACCESS:          0  HIT:          0  MISS:          0
cpu0_L2C PREFETCH  ACCESS:          0  HIT:          0  MISS:          0
cpu0_L2C WRITEBACK ACCESS:    3301388  HIT:     914521  MISS:    2386867
cpu0_L2C TRANSLATION ACCESS:       2176  HIT:       2072  MISS:        104
cpu0_L2C PREFETCH  REQUESTED:          0  ISSUED:          0  USEFUL:          0  USELESS:          0
cpu0_L2C AVERAGE MISS LATENCY: 58.7283 cycles
LLC TOTAL     ACCESS:    4017952  HIT:    1621078  MISS:    2396874
LLC LOAD      ACCESS:    1630928  HIT:     914248  MISS:     716680
LLC RFO       ACCESS:          0  HIT:          0  MISS:          0
LLC PREFETCH  ACCESS:          0  HIT:          0  MISS:          0
LLC WRITEBACK ACCESS:    2386920  HIT:     706730  MISS:    1680190
LLC TRANSLATION ACCESS:        104  HIT:        100  MISS:          4
LLC PREFETCH  REQUESTED:          0  ISSUED:          0  USEFUL:          0  USELESS:          0
LLC AVERAGE MISS LATENCY: 84.157 cycles

DRAM Statistics
 CHANNEL 0
 RQ ROW_BUFFER_HIT:      10666  ROW_BUFFER_MISS:     705345
 DBUS AVG_CONGESTED_CYCLE:    3.98913
 WQ ROW_BUFFER_HIT:       6651  ROW_BUFFER_MISS:    1068379  FULL:      12338


CPU 0 Branch Prediction Accuracy: 84.6764% MPKI: 31.4387 Average ROB Occupancy at Mispredict: 14.6393
Branch type MPKI
BRANCH_DIRECT_JUMP: 0
BRANCH_INDIRECT: 0
BRANCH_CONDITIONAL: 31.4387
BRANCH_DIRECT_CALL: 0
BRANCH_INDIRECT_CALL: 0
BRANCH_RETURN: 0

