
*** ChampSim Multicore Out-of-Order Simulator ***

Warmup Instructions: 30000000
Simulation Instructions: 30000000
Number of CPUs: 1
Off-chip DRAM Size: 4 GiB Channels: 1 Width: 64-bit Data Rate: 3200 MT/s

VirtualMemory physical capacity: 8588881920 num_ppages: 2096895
VirtualMemory page size: 4096 log2_page_size: 12

CPU 0 runs gap_traces/cc-6.trace.gz
CPU 0 Bimodal branch predictor
Basic BTB sets: 1024 ways: 8 indirect buffer size: 4096 RAS size: 64
Heartbeat CPU 0 instructions: 10000004 cycles: 2549817 heartbeat IPC: 3.92185 cumulative IPC: 3.92185 (Simulation time: 0 hr 0 min 14 sec) 
Heartbeat CPU 0 instructions: 20000002 cycles: 5242322 heartbeat IPC: 3.71401 cumulative IPC: 3.8151 (Simulation time: 0 hr 0 min 29 sec) 
Heartbeat CPU 0 instructions: 30000004 cycles: 8005846 heartbeat IPC: 3.61857 cumulative IPC: 3.74726 (Simulation time: 0 hr 0 min 45 sec) 

Warmup complete CPU 0 instructions: 30000004 cycles: 8005846 (Simulation time: 0 hr 0 min 45 sec) 

Heartbeat CPU 0 instructions: 40000000 cycles: 56351478 heartbeat IPC: 0.206844 cumulative IPC: 0.206844 (Simulation time: 0 hr 1 min 22 sec) 
Heartbeat CPU 0 instructions: 50000000 cycles: 104279133 heartbeat IPC: 0.208648 cumulative IPC: 0.207742 (Simulation time: 0 hr 1 min 59 sec) 
Heartbeat CPU 0 instructions: 60000003 cycles: 150933716 heartbeat IPC: 0.214341 cumulative IPC: 0.209896 (Simulation time: 0 hr 2 min 37 sec) 
Finished CPU 0 instructions: 30000004 cycles: 142927871 cumulative IPC: 0.209896 (Simulation time: 0 hr 2 min 37 sec) 

ChampSim completed all CPUs

Region of Interest Statistics

CPU 0 cumulative IPC: 0.209896 instructions: 30000004 cycles: 142927871
cpu0_DTLB TOTAL     ACCESS:    7964088  HIT:    6386358  MISS:    1577730
cpu0_DTLB LOAD      ACCESS:    7857519  HIT:    6279789  MISS:    1577730
cpu0_DTLB RFO       ACCESS:     106569  HIT:     106569  MISS:          0
cpu0_DTLB PREFETCH  ACCESS:          0  HIT:          0  MISS:          0
cpu0_DTLB WRITEBACK ACCESS:          0  HIT:          0  MISS:          0
cpu0_DTLB TRANSLATION ACCESS:          0  HIT:          0  MISS:          0
cpu0_DTLB PREFETCH  REQUESTED:          0  ISSUED:          0  USEFUL:          0  USELESS:          0
cpu0_DTLB AVERAGE MISS LATENCY: 9.7452 cycles
cpu0_ITLB TOTAL     ACCESS:    3224239  HIT:    3224239  MISS:          0
cpu0_ITLB LOAD      ACCESS:    3224239  HIT:    3224239  MISS:          0
cpu0_ITLB RFO       ACCESS:          0  HIT:          0  MISS:          0
cpu0_ITLB PREFETCH  ACCESS:          0  HIT:          0  MISS:          0
cpu0_ITLB WRITEBACK ACCESS:          0  HIT:          0  MISS:          0
cpu0_ITLB TRANSLATION ACCESS:          0  HIT:          0  MISS:          0
cpu0_ITLB PREFETCH  REQUESTED:          0  ISSUED:          0  USEFUL:          0  USELESS:          0
cpu0_ITLB AVERAGE MISS LATENCY: -nan cycles
cpu0_STLB TOTAL     ACCESS:    1577730  HIT:    1575392  MISS:       2338
cpu0_STLB LOAD      ACCESS:    1577730  HIT:    1575392  MISS:       2338
cpu0_STLB RFO       ACCESS:          0  HIT:          0  MISS:          0
cpu0_STLB PREFETCH  ACCESS:          0  HIT:          0  MISS:          0
cpu0_STLB WRITEBACK ACCESS:          0  HIT:          0  MISS:          0
cpu0_STLB TRANSLATION ACCESS:          0  HIT:          0  MISS:          0
cpu0_STLB PREFETCH  REQUESTED:          0  ISSUED:          0  USEFUL:          0  USELESS:          0
cpu0_STLB AVERAGE MISS LATENCY: 219.199 cycles
cpu0_L1D TOTAL     ACCESS:    6544505  HIT:    4157500  MISS:    2387005
cpu0_L1D LOAD      ACCESS:    6435235  HIT:    4050406  MISS:    2384829
cpu0_L1D RFO       ACCESS:     106932  HIT:     106932  MISS:          0
cpu0_L1D PREFETCH  ACCESS:          0  HIT:          0  MISS:          0
cpu0_L1D WRITEBACK ACCESS:          0  HIT:          0  MISS:          0
cpu0_L1D TRANSLATION ACCESS:       2338  HIT:        162  MISS:       2176
cpu0_L1D PREFETCH  REQUESTED:          0  ISSUED:          0  USEFUL:          0  USELESS:          0
cpu0_L1D AVERAGE MISS LATENCY: 74.9569 cycles
cpu0_L2C TOTAL     ACCESS:    2474986  HIT:     820167  MISS:    1654819
cpu0_L2C LOAD      ACCESS:    2384826  HIT:     733577  MISS:    1651249
cpu0_L2C RFO       ACCESS:          0  HIT:          0  MISS:          0
cpu0_L2C PREFETCH  ACCESS:          0  HIT:          0  MISS:          0
cpu0_L2C WRITEBACK ACCESS:      87984  HIT:      84520  MISS:       3464
cpu0_L2C TRANSLATION ACCESS:       2176  HIT:       2070  MISS:        106
cpu0_L2C PREFETCH  REQUESTED:          0  ISSUED:          0  USEFUL:          0  USELESS:          0
cpu0_L2C AVERAGE MISS LATENCY: 91.9269 cycles
LLC TOTAL     ACCESS:    1739105  HIT:    1057003  MISS:     682102
LLC LOAD      ACCESS:    1651248  HIT:     997054  MISS:     654194
LLC RFO       ACCESS:          0  HIT:          0  MISS:          0
LLC PREFETCH  ACCESS:          0  HIT:          0  MISS:          0
LLC WRITEBACK ACCESS:      87751  HIT:      59843  MISS:      27908
LLC TRANSLATION ACCESS:        106  HIT:        106  MISS:          0
LLC PREFETCH  REQUESTED:          0  ISSUED:          0  USEFUL:          0  USELESS:          0
LLC AVERAGE MISS LATENCY: 172.179 cycles

DRAM Statistics
 CHANNEL 0
 RQ ROW_BUFFER_HIT:      12951  ROW_BUFFER_MISS:     641206
 DBUS AVG_CONGESTED_CYCLE:    3.72354
 WQ ROW_BUFFER_HIT:      48439  ROW_BUFFER_MISS:      54197  FULL:          0


CPU 0 Branch Prediction Accuracy: 84.6764% MPKI: 31.4387 Average ROB Occupancy at Mispredict: 14.6399
Branch type MPKI
BRANCH_DIRECT_JUMP: 0
BRANCH_INDIRECT: 0
BRANCH_CONDITIONAL: 31.4387
BRANCH_DIRECT_CALL: 0
BRANCH_INDIRECT_CALL: 0
BRANCH_RETURN: 0

