
*** ChampSim Multicore Out-of-Order Simulator ***

Warmup Instructions: 30000000
Simulation Instructions: 30000000
Number of CPUs: 1
Off-chip DRAM Size: 4 GiB Channels: 1 Width: 64-bit Data Rate: 3200 MT/s

VirtualMemory physical capacity: 8588881920 num_ppages: 2096895
VirtualMemory page size: 4096 log2_page_size: 12

CPU 0 runs gap_traces/cc-6.trace.gz
CPU 0 Bimodal branch predictor
Basic BTB sets: 1024 ways: 8 indirect buffer size: 4096 RAS size: 64
Heartbeat CPU 0 instructions: 10000001 cycles: 2549825 heartbeat IPC: 3.92184 cumulative IPC: 3.92184 (Simulation time: 0 hr 0 min 12 sec) 
Heartbeat CPU 0 instructions: 20000002 cycles: 5242333 heartbeat IPC: 3.71401 cumulative IPC: 3.8151 (Simulation time: 0 hr 0 min 27 sec) 
Heartbeat CPU 0 instructions: 30000004 cycles: 8005853 heartbeat IPC: 3.61857 cumulative IPC: 3.74726 (Simulation time: 0 hr 0 min 41 sec) 

Warmup complete CPU 0 instructions: 30000004 cycles: 8005853 (Simulation time: 0 hr 0 min 41 sec) 

Heartbeat CPU 0 instructions: 40000000 cycles: 62196003 heartbeat IPC: 0.184535 cumulative IPC: 0.184535 (Simulation time: 0 hr 1 min 20 sec) 
Heartbeat CPU 0 instructions: 50000000 cycles: 116066489 heartbeat IPC: 0.18563 cumulative IPC: 0.185081 (Simulation time: 0 hr 1 min 59 sec) 
Heartbeat CPU 0 instructions: 60000003 cycles: 168596054 heartbeat IPC: 0.190369 cumulative IPC: 0.186811 (Simulation time: 0 hr 2 min 38 sec) 
Finished CPU 0 instructions: 30000004 cycles: 160590202 cumulative IPC: 0.186811 (Simulation time: 0 hr 2 min 38 sec) 

ChampSim completed all CPUs

Region of Interest Statistics

CPU 0 cumulative IPC: 0.186811 instructions: 30000004 cycles: 160590202
cpu0_DTLB TOTAL     ACCESS:    7997589  HIT:    6419845  MISS:    1577744
cpu0_DTLB LOAD      ACCESS:    7891035  HIT:    6313291  MISS:    1577744
cpu0_DTLB RFO       ACCESS:     106554  HIT:     106554  MISS:          0
cpu0_DTLB PREFETCH  ACCESS:          0  HIT:          0  MISS:          0
cpu0_DTLB WRITEBACK ACCESS:          0  HIT:          0  MISS:          0
cpu0_DTLB TRANSLATION ACCESS:          0  HIT:          0  MISS:          0
cpu0_DTLB PREFETCH  REQUESTED:          0  ISSUED:          0  USEFUL:          0  USELESS:          0
cpu0_DTLB AVERAGE MISS LATENCY: 9.7464 cycles
cpu0_ITLB TOTAL     ACCESS:    3217422  HIT:    3217422  MISS:          0
cpu0_ITLB LOAD      ACCESS:    3217422  HIT:    3217422  MISS:          0
cpu0_ITLB RFO       ACCESS:          0  HIT:          0  MISS:          0
cpu0_ITLB PREFETCH  ACCESS:          0  HIT:          0  MISS:          0
cpu0_ITLB WRITEBACK ACCESS:          0  HIT:          0  MISS:          0
cpu0_ITLB TRANSLATION ACCESS:          0  HIT:          0  MISS:          0
cpu0_ITLB PREFETCH  REQUESTED:          0  ISSUED:          0  USEFUL:          0  USELESS:          0
cpu0_ITLB AVERAGE MISS LATENCY: -nan cycles
cpu0_STLB TOTAL     ACCESS:    1577744  HIT:    1575406  MISS:       2338
cpu0_STLB LOAD      ACCESS:    1577744  HIT:    1575406  MISS:       2338
cpu0_STLB RFO       ACCESS:          0  HIT:          0  MISS:          0
cpu0_STLB PREFETCH  ACCESS:          0  HIT:          0  MISS:          0
cpu0_STLB WRITEBACK ACCESS:          0  HIT:          0  MISS:          0
cpu0_STLB TRANSLATION ACCESS:          0  HIT:          0  MISS:          0
cpu0_STLB PREFETCH  REQUESTED:          0  ISSUED:          0  USEFUL:          0  USELESS:          0
cpu0_STLB AVERAGE MISS LATENCY: 220.79 cycles
cpu0_L1D TOTAL     ACCESS:    6598585  HIT:    4211532  MISS:    2387053
cpu0_L1D LOAD      ACCESS:    6489315  HIT:    4104437  MISS:    2384878
cpu0_L1D RFO       ACCESS:     106932  HIT:     106932  MISS:          0
cpu0_L1D PREFETCH  ACCESS:          0  HIT:          0  MISS:          0
cpu0_L1D WRITEBACK ACCESS:          0  HIT:          0  MISS:          0
cpu0_L1D TRANSLATION ACCESS:       2338  HIT:        163  MISS:       2175
cpu0_L1D PREFETCH  REQUESTED:          0  ISSUED:          0  USEFUL:          0  USELESS:          0
cpu0_L1D AVERAGE MISS LATENCY: 94.3782 cycles
cpu0_L2C TOTAL     ACCESS:    2475028  HIT:     820762  MISS:    1654266
cpu0_L2C LOAD      ACCESS:    2384873  HIT:     731524  MISS:    1653349
cpu0_L2C RFO       ACCESS:          0  HIT:          0  MISS:          0
cpu0_L2C PREFETCH  ACCESS:          0  HIT:          0  MISS:          0
cpu0_L2C WRITEBACK ACCESS:      87980  HIT:      87169  MISS:        811
cpu0_L2C TRANSLATION ACCESS:       2175  HIT:       2069  MISS:        106
cpu0_L2C PREFETCH  REQUESTED:          0  ISSUED:          0  USEFUL:          0  USELESS:          0
cpu0_L2C AVERAGE MISS LATENCY: 119.99 cycles
LLC TOTAL     ACCESS:    1741162  HIT:     867225  MISS:     873937
LLC LOAD      ACCESS:    1653349  HIT:     790195  MISS:     863154
LLC RFO       ACCESS:          0  HIT:          0  MISS:          0
LLC PREFETCH  ACCESS:          0  HIT:          0  MISS:          0
LLC WRITEBACK ACCESS:      87707  HIT:      76947  MISS:      10760
LLC TRANSLATION ACCESS:        106  HIT:         83  MISS:         23
LLC PREFETCH  REQUESTED:          0  ISSUED:          0  USEFUL:          0  USELESS:          0
LLC AVERAGE MISS LATENCY: 187.397 cycles

DRAM Statistics
 CHANNEL 0
 RQ ROW_BUFFER_HIT:      20809  ROW_BUFFER_MISS:     842309
 DBUS AVG_CONGESTED_CYCLE:    3.78169
 WQ ROW_BUFFER_HIT:      52908  ROW_BUFFER_MISS:      42575  FULL:          0


CPU 0 Branch Prediction Accuracy: 84.6764% MPKI: 31.4387 Average ROB Occupancy at Mispredict: 14.6418
Branch type MPKI
BRANCH_DIRECT_JUMP: 0
BRANCH_INDIRECT: 0
BRANCH_CONDITIONAL: 31.4387
BRANCH_DIRECT_CALL: 0
BRANCH_INDIRECT_CALL: 0
BRANCH_RETURN: 0

