
*** ChampSim Multicore Out-of-Order Simulator ***

Warmup Instructions: 30000000
Simulation Instructions: 30000000
Number of CPUs: 1
Off-chip DRAM Size: 4 GiB Channels: 1 Width: 64-bit Data Rate: 3200 MT/s

VirtualMemory physical capacity: 8588881920 num_ppages: 2096895
VirtualMemory page size: 4096 log2_page_size: 12

CPU 0 runs gap_traces/cc-6.trace.gz
CPU 0 Bimodal branch predictor
Basic BTB sets: 1024 ways: 8 indirect buffer size: 4096 RAS size: 64
Heartbeat CPU 0 instructions: 10000004 cycles: 2549825 heartbeat IPC: 3.92184 cumulative IPC: 3.92184 (Simulation time: 0 hr 0 min 12 sec) 
Heartbeat CPU 0 instructions: 20000001 cycles: 5242340 heartbeat IPC: 3.714 cumulative IPC: 3.81509 (Simulation time: 0 hr 0 min 27 sec) 
Heartbeat CPU 0 instructions: 30000004 cycles: 8005864 heartbeat IPC: 3.61857 cumulative IPC: 3.74725 (Simulation time: 0 hr 0 min 42 sec) 

Warmup complete CPU 0 instructions: 30000004 cycles: 8005864 (Simulation time: 0 hr 0 min 42 sec) 

Heartbeat CPU 0 instructions: 40000000 cycles: 56243868 heartbeat IPC: 0.207305 cumulative IPC: 0.207305 (Simulation time: 0 hr 1 min 16 sec) 
Heartbeat CPU 0 instructions: 50000000 cycles: 104121342 heartbeat IPC: 0.208866 cumulative IPC: 0.208083 (Simulation time: 0 hr 1 min 51 sec) 
Heartbeat CPU 0 instructions: 60000003 cycles: 150677609 heartbeat IPC: 0.214794 cumulative IPC: 0.210273 (Simulation time: 0 hr 2 min 26 sec) 
Finished CPU 0 instructions: 30000004 cycles: 142671746 cumulative IPC: 0.210273 (Simulation time: 0 hr 2 min 26 sec) 

ChampSim completed all CPUs

Region of Interest Statistics

CPU 0 cumulative IPC: 0.210273 instructions: 30000004 cycles: 142671746
cpu0_DTLB TOTAL     ACCESS:    7963947  HIT:    6386190  MISS:    1577757
cpu0_DTLB LOAD      ACCESS:    7857381  HIT:    6279624  MISS:    1577757
cpu0_DTLB RFO       ACCESS:     106566  HIT:     106566  MISS:          0
cpu0_DTLB PREFETCH  ACCESS:          0  HIT:          0  MISS:          0
cpu0_DTLB WRITEBACK ACCESS:          0  HIT:          0  MISS:          0
cpu0_DTLB TRANSLATION ACCESS:          0  HIT:          0  MISS:          0
cpu0_DTLB PREFETCH  REQUESTED:          0  ISSUED:          0  USEFUL:          0  USELESS:          0
cpu0_DTLB AVERAGE MISS LATENCY: 9.74517 cycles
cpu0_ITLB TOTAL     ACCESS:    3223978  HIT:    3223978  MISS:          0
cpu0_ITLB LOAD      ACCESS:    3223978  HIT:    3223978  MISS:          0
cpu0_ITLB RFO       ACCESS:          0  HIT:          0  MISS:          0
cpu0_ITLB PREFETCH  ACCESS:          0  HIT:          0  MISS:          0
cpu0_ITLB WRITEBACK ACCESS:          0  HIT:          0  MISS:          0
cpu0_ITLB TRANSLATION ACCESS:          0  HIT:          0  MISS:          0
cpu0_ITLB PREFETCH  REQUESTED:          0  ISSUED:          0  USEFUL:          0  USELESS:          0
cpu0_ITLB AVERAGE MISS LATENCY: -nan cycles
cpu0_STLB TOTAL     ACCESS:    1577757  HIT:    1575419  MISS:       2338
cpu0_STLB LOAD      ACCESS:    1577757  HIT:    1575419  MISS:       2338
cpu0_STLB RFO       ACCESS:          0  HIT:          0  MISS:          0
cpu0_STLB PREFETCH  ACCESS:          0  HIT:          0  MISS:          0
cpu0_STLB WRITEBACK ACCESS:          0  HIT:          0  MISS:          0
cpu0_STLB TRANSLATION ACCESS:          0  HIT:          0  MISS:          0
cpu0_STLB PREFETCH  REQUESTED:          0  ISSUED:          0  USEFUL:          0  USELESS:          0
cpu0_STLB AVERAGE MISS LATENCY: 219.204 cycles
cpu0_L1D TOTAL     ACCESS:    6543719  HIT:    4156677  MISS:    2387042
cpu0_L1D LOAD      ACCESS:    6434449  HIT:    4049584  MISS:    2384865
cpu0_L1D RFO       ACCESS:     106932  HIT:     106932  MISS:          0
cpu0_L1D PREFETCH  ACCESS:          0  HIT:          0  MISS:          0
cpu0_L1D WRITEBACK ACCESS:          0  HIT:          0  MISS:          0
cpu0_L1D TRANSLATION ACCESS:       2338  HIT:        161  MISS:       2177
cpu0_L1D PREFETCH  REQUESTED:          0  ISSUED:          0  USEFUL:          0  USELESS:          0
cpu0_L1D AVERAGE MISS LATENCY: 74.7021 cycles
cpu0_L2C TOTAL     ACCESS:    2475001  HIT:     821421  MISS:    1653580
cpu0_L2C LOAD      ACCESS:    2384865  HIT:     731410  MISS:    1653455
cpu0_L2C RFO       ACCESS:          0  HIT:          0  MISS:          0
cpu0_L2C PREFETCH  ACCESS:          0  HIT:          0  MISS:          0
cpu0_L2C WRITEBACK ACCESS:      87959  HIT:      87940  MISS:         19
cpu0_L2C TRANSLATION ACCESS:       2177  HIT:       2071  MISS:        106
cpu0_L2C PREFETCH  REQUESTED:          0  ISSUED:          0  USEFUL:          0  USELESS:          0
cpu0_L2C AVERAGE MISS LATENCY: 91.6285 cycles
LLC TOTAL     ACCESS:    1741231  HIT:    1061565  MISS:     679666
LLC LOAD      ACCESS:    1653455  HIT:    1001587  MISS:     651868
LLC RFO       ACCESS:          0  HIT:          0  MISS:          0
LLC PREFETCH  ACCESS:          0  HIT:          0  MISS:          0
LLC WRITEBACK ACCESS:      87670  HIT:      59872  MISS:      27798
LLC TRANSLATION ACCESS:        106  HIT:        106  MISS:          0
LLC PREFETCH  REQUESTED:          0  ISSUED:          0  USEFUL:          0  USELESS:          0
LLC AVERAGE MISS LATENCY: 171.834 cycles

DRAM Statistics
 CHANNEL 0
 RQ ROW_BUFFER_HIT:      13733  ROW_BUFFER_MISS:     638120
 DBUS AVG_CONGESTED_CYCLE:    3.70119
 WQ ROW_BUFFER_HIT:      39241  ROW_BUFFER_MISS:      37483  FULL:          0


CPU 0 Branch Prediction Accuracy: 84.6764% MPKI: 31.4387 Average ROB Occupancy at Mispredict: 14.6398
Branch type MPKI
BRANCH_DIRECT_JUMP: 0
BRANCH_INDIRECT: 0
BRANCH_CONDITIONAL: 31.4387
BRANCH_DIRECT_CALL: 0
BRANCH_INDIRECT_CALL: 0
BRANCH_RETURN: 0

